@<TRIPOS>MOLECULE
LIG
29 31 1 0 0
SMALL
USER_CHARGES
****
generated by FESetup
@<TRIPOS>ATOM
     1 H1      16.2264    16.7546    20.4537 ha    1 LIG  0.132862
     2 C2      15.9595    16.4381    19.4498 ca    1 LIG -0.083138
     3 C3      14.6313    16.4696    19.0520 ca    1 LIG -0.159138
     4 H4      13.7903    16.7622    19.6737 ha    1 LIG  0.127862
     5 C5      14.2003    15.9776    17.8126 ca    1 LIG -0.112138
     6 H6      13.1550    15.8171    17.5653 ha    1 LIG  0.127862
     7 C7      15.1952    15.7098    16.8423 ca    1 LIG -0.088438
     8 C8      16.5396    15.6959    17.2459 ca    1 LIG -0.041338
     9 N9      17.6851    15.2221    16.6034 na    1 LIG -0.192538
    10 C10     16.8720    16.0383    18.5108 ca    1 LIG -0.095938
    11 C11     18.2438    15.8458    18.7069 cc    1 LIG -0.190338
    12 C12     18.7726    15.4050    17.4975 cd    1 LIG -0.111238
    13 C13     14.7552    15.2763    15.4632 c3    1 LIG -0.016538
    14 H27     18.8753    15.8556    19.5876 ha    1 LIG  0.154862
    15 H28     19.7690    15.1501    17.1625 h4    1 LIG  0.162862
    16 H29     17.7105    14.9199    15.6400 hn    1 LIG  0.304562
    17 H26     16.0958    13.5270    15.5780 hc    1 LIG  0.049562
    18 H25     14.5826    13.2564    14.6836 hc    1 LIG  0.049562
    19 C24     15.3799    13.9828    14.8831 c3    1 LIG -0.081538
    20 H23     17.0906    14.5755    13.7586 hc    1 LIG  0.039562
    21 H22     16.0045    13.5143    12.8224 hc    1 LIG  0.039562
    22 C21     16.0411    14.3298    13.5550 c3    1 LIG -0.084538
    23 H20     15.7043    16.2020    12.3599 hc    1 LIG  0.039562
    24 H19     14.3259    15.3010    12.7445 hc    1 LIG  0.039562
    25 C18     15.3006    15.5766    13.1655 c3    1 LIG -0.084538
    26 H17     15.9737    16.9609    14.7513 hc    1 LIG  0.049562
    27 H16     14.3000    17.0817    14.3211 hc    1 LIG  0.049562
    28 C15     15.1177    16.3579    14.4245 c3    1 LIG -0.081538
    29 H14     13.6667    15.1437    15.4393 hc    1 LIG  0.055562
@<TRIPOS>BOND
     0      1      2 1
     1      2      3 1
     2      2     10 1
     3      3      4 1
     4      3      5 1
     5      5      6 1
     6      5      7 1
     7      7      8 1
     8      7     13 1
     9      8      9 1
    10      8     10 1
    11      9     12 1
    12      9     16 1
    13     10     11 1
    14     11     12 1
    15     11     14 1
    16     12     15 1
    17     13     19 1
    18     13     28 1
    19     13     29 1
    20     17     19 1
    21     18     19 1
    22     19     22 1
    23     20     22 1
    24     21     22 1
    25     22     25 1
    26     23     25 1
    27     24     25 1
    28     25     28 1
    29     26     28 1
    30     27     28 1
@<TRIPOS>SUBSTRUCTURE
  1 LIG 1 TEMP
