@<TRIPOS>MOLECULE
LIG
8 7 1 0 0
SMALL
USER_CHARGES
****
generated by FESetup
@<TRIPOS>ATOM
     1 C1      13.7781    13.5923    12.9108 c3    1 LIG -0.094350
     2 C2      14.0504    14.6064    14.0946 c3    1 LIG -0.094350
     3 H3      14.3413    12.6795    13.1404 hc    1 LIG  0.031450
     4 H4      14.0962    13.9777    11.9344 hc    1 LIG  0.031450
     5 H5      12.7094    13.3633    12.8174 hc    1 LIG  0.031450
     6 H6      13.5219    15.5053    13.7544 hc    1 LIG  0.031450
     7 H7      15.1019    14.8430    14.2986 hc    1 LIG  0.031450
     8 H8      13.5849    14.2443    15.0195 hc    1 LIG  0.031450
@<TRIPOS>BOND
     0      1      2 1
     1      1      3 1
     2      1      4 1
     3      1      5 1
     4      2      6 1
     5      2      7 1
     6      2      8 1
@<TRIPOS>SUBSTRUCTURE
  1 LIG 1 TEMP
