@<TRIPOS>MOLECULE
LIG
    5     4     1     0     0
SMALL
No Charge or Current Charge


@<TRIPOS>ATOM
      1 C1           1.0920     0.0290    -0.0040 c3         1 LIG      -0.108400
      2 H2           2.1850     0.0270    -0.0190 hc         1 LIG       0.027100
      3 H3           0.7200    -0.8570    -0.5230 hc         1 LIG       0.027100
      4 H4           0.7230     0.9260    -0.5050 hc         1 LIG       0.027100
      5 H5           0.7430     0.0190     1.0300 hc         1 LIG       0.027100
@<TRIPOS>BOND
     1     1     2 1   
     2     1     3 1   
     3     1     4 1   
     4     1     5 1   
@<TRIPOS>SUBSTRUCTURE
     1 LIG         1 TEMP              0 ****  ****    0 ROOT
