@<TRIPOS>MOLECULE
LIG
17 16 1 0 0
SMALL
USER_CHARGES
****
generated by FESetup
@<TRIPOS>ATOM
     1 C1       1.0920     0.0290    -0.0040 c3    1 LIG -0.108400
     2 H2       2.1850     0.0270    -0.0190 zz    1 LIG  0.027100
     3 H3       0.7200    -0.8570    -0.5230 zz    1 LIG  0.027100
     4 H4       0.7230     0.9260    -0.5050 zz    1 LIG  0.027100
     5 H5       0.7430     0.0190     1.0300 zz    1 LIG  0.027100
     6 DU6      2.5894     0.9065     0.4933 du    1 LIG  0.000000
     7 DU7      2.5664     0.0349    -1.0462 du    1 LIG  0.000000
     8 DU8      2.5852    -0.8633     0.4786 du    1 LIG  0.000000
     9 DU9     -0.3751    -0.8843    -0.5243 du    1 LIG  0.000000
    10 DU10     1.0760    -1.7747    -0.0419 du    1 LIG  0.000000
    11 DU11     1.0553    -0.8752    -1.5652 du    1 LIG  0.000000
    12 DU12    -0.3721     0.9553    -0.5079 du    1 LIG  0.000000
    13 DU13     1.0604     0.9634    -1.5468 du    1 LIG  0.000000
    14 DU14     1.0802     1.8334    -0.0062 du    1 LIG  0.000000
    15 DU15    -0.3514     0.0210     1.0786 du    1 LIG  0.000000
    16 DU16     1.1034     0.8971     1.5784 du    1 LIG  0.000000
    17 DU17     1.0983    -0.8727     1.5587 du    1 LIG  0.000000
@<TRIPOS>BOND
     0      1      2 1
     1      1      3 1
     2      1      4 1
     3      1      5 1
     4      2      6 1
     5      2      7 1
     6      2      8 1
     7      3      9 1
     8      3     10 1
     9      3     11 1
    10      4     12 1
    11      4     13 1
    12      4     14 1
    13      5     15 1
    14      5     16 1
    15      5     17 1
@<TRIPOS>SUBSTRUCTURE
  1 LIG 1 TEMP
