@<TRIPOS>MOLECULE
solute.pdb
 9 8 0 0 0
SMALL
GASTEIGER

@<TRIPOS>ATOM
      1 C1          0.9550    0.1650    0.4240 C.3     1  LIG1        0.0414
      2 O2          1.9230    0.0150   -0.6040 O.3     1  LIG1       -0.3953
      3 H3          2.7890    0.2250   -0.2140 H       1  LIG1        0.2094
      4 C4         -0.4120   -0.1660   -0.1330 C.3     1  LIG1       -0.0418
      5 H5          0.9830    1.1970    0.7870 H       1  LIG1        0.0554
      6 H6          1.2080   -0.5110    1.2470 H       1  LIG1        0.0554
      7 H7         -0.6620    0.5020   -0.9650 H       1  LIG1        0.0252
      8 H8         -1.1820   -0.0720    0.6380 H       1  LIG1        0.0252
      9 H9         -0.4310   -1.1870   -0.5290 H       1  LIG1        0.0252
@<TRIPOS>BOND
     1     1     2    1
     2     1     4    1
     3     1     5    1
     4     1     6    1
     5     2     3    1
     6     4     7    1
     7     4     8    1
     8     4     9    1
