@<TRIPOS>MOLECULE
INT
12 12 1 0 0
SMALL
USER_CHARGES
****
generated by FESetup
@<TRIPOS>ATOM
     1 C1      13.4219    13.6705    11.5540 c3    1 INT -0.108400
     2 C2      13.6960    14.1654    10.6142 cc    1 INT  0.027100
     3 H7      12.4737    13.1376    11.4117 hc    1 INT  0.027100
     4 H8      13.1973    14.4117    12.3308 hc    1 INT  0.027100
     5 H9      14.2217    13.0052    11.9016 hc    1 INT  0.027100
     6 O3      12.8535    13.9852     9.5596 os    1 INT  0.000000
     7 C4      13.3765    14.6743     8.5127 cc    1 INT  0.000000
     8 C5      14.5459    15.2959     8.8817 cd    1 INT  0.000000
     9 C6      14.7546    14.9667    10.2419 cd    1 INT  0.000000
    10 H10     12.8101    14.6251     7.5933 h4    1 INT  0.000000
    11 H11     15.1695    15.9091     8.2467 ha    1 INT  0.000000
    12 H12     15.5743    15.2750    10.8762 ha    1 INT  0.000000
@<TRIPOS>BOND
     0      1      2 1
     1      1      3 1
     2      1      4 1
     3      1      5 1
     4      2      6 1
     5      2      9 1
     6      6      7 1
     7      7      8 1
     8      7     10 1
     9      8      9 1
    10      8     11 1
    11      9     12 1
@<TRIPOS>SUBSTRUCTURE
  1 INT 1 TEMP
