@<TRIPOS>MOLECULE
LIG
12 12 1 0 0
SMALL
USER_CHARGES
****
generated by FESetup
@<TRIPOS>ATOM
     1 C1      13.9871    16.3011    14.3427 c3    1 LIG -0.132317
     2 C2      14.8697    15.5960    13.2968 cc    1 LIG  0.249083
     3 O3      16.2564    15.5629    13.3971 os    1 LIG -0.366717
     4 C4      16.6241    15.0726    12.1696 cc    1 LIG  0.233683
     5 C5      15.5757    14.9142    11.2884 cd    1 LIG -0.261217
     6 C6      14.4178    15.3485    12.0695 cd    1 LIG -0.265217
     7 H7      13.6147    15.6130    15.1115 hc    1 LIG  0.057450
     8 H8      13.1780    16.8284    13.8226 hc    1 LIG  0.057450
     9 H9      14.6623    17.0065    14.8426 hc    1 LIG  0.057450
    10 H10     17.6716    14.8502    12.0166 h4    1 LIG  0.051183
    11 H11     15.6549    14.5688    10.2643 ha    1 LIG  0.159083
    12 H12     13.3888    15.4107    11.7352 ha    1 LIG  0.160083
@<TRIPOS>BOND
     0      1      2 1
     1      1      7 1
     2      1      8 1
     3      1      9 1
     4      2      3 1
     5      2      6 1
     6      3      4 1
     7      4      5 1
     8      4     10 1
     9      5      6 1
    10      5     11 1
    11      6     12 1
@<TRIPOS>SUBSTRUCTURE
  1 LIG 1 TEMP
