@<TRIPOS>MOLECULE
LIG
42 45 1 0 0
SMALL
USER_CHARGES
****
generated by FESetup
@<TRIPOS>ATOM
     1 H1       1.1390    -0.3910     2.4490 ha    1 LIG  0.131897
     2 C2       0.5980    -0.2940     1.5130 ca    1 LIG -0.083103
     3 C3      -0.7940    -0.4410     1.4850 ca    1 LIG -0.160103
     4 H4      -1.3300    -0.6510     2.4070 ha    1 LIG  0.127897
     5 C5      -1.4950    -0.3260     0.2860 ca    1 LIG -0.114103
     6 H6      -2.5760    -0.4480     0.2840 ha    1 LIG  0.126897
     7 C7      -0.8310    -0.0560    -0.9150 ca    1 LIG -0.147103
     8 H8      -1.3810     0.0310    -1.8460 zz    1 LIG  0.129897
     9 C9       0.5610     0.0880    -0.8680 ca    1 LIG -0.043303
    10 N10      1.4660     0.3470    -1.8750 na    1 LIG -0.187503
    11 C11      1.2870    -0.0280     0.3150 ca    1 LIG -0.093903
    12 C12      2.6550     0.1520    -0.0200 cc    1 LIG -0.187303
    13 C13      2.7520     0.3740    -1.3830 cd    1 LIG -0.053403
    14 H14      1.2020     0.4720    -2.8410 hn    1 LIG  0.298597
    15 H15      3.4890     0.1030     0.6670 ha    1 LIG  0.153897
    16 C16      3.9870     0.5480    -2.2270 c3    1 LIG -0.010603
    17 H17      4.5550    -0.3880    -2.1600 hc    1 LIG  0.070597
    18 C18      3.7520     0.9030    -3.6970 c3    1 LIG -0.081503
    19 H19      4.6360     0.6080    -4.2780 hc    1 LIG  0.051097
    20 H20      2.8960     0.4050    -4.1600 hc    1 LIG  0.051097
    21 C21      3.6310     2.4250    -3.7430 c3    1 LIG -0.083503
    22 H22      4.1290     2.8280    -4.6320 hc    1 LIG  0.041597
    23 H23      2.5810     2.7330    -3.7890 hc    1 LIG  0.041597
    24 C24      4.2750     2.9440    -2.4600 c3    1 LIG -0.083503
    25 H25      5.0500     3.6900    -2.6640 hc    1 LIG  0.041597
    26 H26      3.5160     3.4240    -1.8310 hc    1 LIG  0.041597
    27 C27      4.8530     1.7210    -1.7560 c3    1 LIG -0.081503
    28 H28      5.8860     1.5690    -2.0930 hc    1 LIG  0.051097
    29 H29      4.8800     1.8540    -0.6700 hc    1 LIG  0.051097
    30 DU30    -1.8453     1.0253    -1.8446 du    1 LIG  0.000000
    31 DU31    -0.6249    -0.1892    -3.1653 du    1 LIG  0.000000
    32 DU32    -1.2495     0.1722    -3.9944 du    1 LIG  0.000000
    33 DU33     0.3226     0.3271    -3.2773 du    1 LIG  0.000000
    34 DU34    -0.4882    -1.7022    -3.2927 du    1 LIG  0.000000
    35 DU35    -0.4438    -2.0147    -4.3410 du    1 LIG  0.000000
    36 DU36     0.4277    -2.0519    -2.8033 du    1 LIG  0.000000
    37 DU37    -1.7119    -2.2721    -2.5807 du    1 LIG  0.000000
    38 DU38    -2.3432    -2.8565    -3.2569 du    1 LIG  0.000000
    39 DU39    -1.3975    -2.9333    -1.7646 du    1 LIG  0.000000
    40 DU40    -2.4644    -1.0585    -2.0334 du    1 LIG  0.000000
    41 DU41    -3.1845    -0.7186    -2.7903 du    1 LIG  0.000000
    42 DU42    -3.0506    -1.3185    -1.1507 du    1 LIG  0.000000
@<TRIPOS>BOND
     0      1      2 1
     1      2      3 1
     2      2     11 1
     3      3      4 1
     4      3      5 1
     5      5      6 1
     6      5      7 1
     7      7      8 1
     8      7      9 1
     9      8     40 1
    10      8     30 1
    11      8     31 1
    12      9     10 1
    13      9     11 1
    14     10     13 1
    15     10     14 1
    16     11     12 1
    17     12     13 1
    18     12     15 1
    19     13     16 1
    20     16     18 1
    21     16     27 1
    22     16     17 1
    23     18     19 1
    24     18     20 1
    25     18     21 1
    26     21     22 1
    27     21     23 1
    28     21     24 1
    29     24     25 1
    30     24     26 1
    31     24     27 1
    32     27     28 1
    33     27     29 1
    34     31     32 1
    35     31     33 1
    36     31     34 1
    37     34     35 1
    38     34     36 1
    39     34     37 1
    40     37     38 1
    41     37     39 1
    42     37     40 1
    43     40     41 1
    44     40     42 1
@<TRIPOS>SUBSTRUCTURE
  1 LIG 1 TEMP
