@<TRIPOS>MOLECULE
L1
5 4 1 0 0
SMALL
USER_CHARGES
****
generated by FESetup
@<TRIPOS>ATOM
     1 C1      13.7781    13.5923    12.9108 c3    1 L1 -0.108400
     2 H2      14.0504    14.6064    14.0946 hc    1 L1  0.027100
     3 H3      14.3413    12.6795    13.1404 hc    1 L1  0.027100
     4 H4      14.0962    13.9777    11.9344 hc    1 L1  0.027100
     5 H5      12.7094    13.3633    12.8174 hc    1 L1  0.027100
@<TRIPOS>BOND
     0      1      2 1
     1      1      3 1
     2      1      4 1
     3      1      5 1
@<TRIPOS>SUBSTRUCTURE
  1 L1 1 TEMP
