@<TRIPOS>MOLECULE
LIG
 19 20 1 0 0
SMALL
USER_CHARGES
****
generated by FESetup
@<TRIPOS>ATOM
      1  C1        13.4220   13.6700   11.5540 c3    1 LIG -0.043953
      2  C2        13.6960   14.1650   10.6140 cc    1 LIG -0.059353
      3  H11       12.4740   13.1380   11.4120 hc    1 LIG  0.051314
      4  H12       13.1970   14.4120   12.3310 hc    1 LIG  0.051314
      5  H13       14.2220   13.0050   11.9020 hc    1 LIG  0.051314
      6  C4        14.9820   15.3860    9.2120 ca    1 LIG -0.042253
      7  C5        15.9990   16.1560    8.6380 ca    1 LIG -0.148053
      8  C6        15.8550   16.5190    7.2950 ca    1 LIG -0.113053
      9  C7        14.7360   16.1290    6.5620 ca    1 LIG -0.160053
     10  C8        13.7260   15.3610    7.1540 ca    1 LIG -0.083053
     11  C9        13.8530   14.9810    8.5040 ca    1 LIG -0.093853
     12  C10       13.0490   14.2190    9.3970 cd    1 LIG -0.185253
     13  N3        14.8590   14.8860   10.4890 na    1 LIG -0.194453
     14  H14       15.5390   15.0260   11.2230 hn    1 LIG  0.295647
     15  H15       16.8720   16.4610    9.2050 ha    1 LIG  0.129947
     16  H16       16.6290   17.1140    6.8150 ha    1 LIG  0.127947
     17  H17       14.6450   16.4210    5.5180 ha    1 LIG  0.127947
     18  H18       12.8570   15.0590    6.5770 ha    1 LIG  0.132947
     19  H19       12.1010   13.7520    9.1650 ha    1 LIG  0.154947
@<TRIPOS>BOND
     1    17     9    1
     2     9    10   ar
     3     9     8   ar
     4    18    10    1
     5    16     8    1
     6    10    11   ar
     7     8     7   ar
     8    11     6   ar
     9    11    12   ar
    10     7    15    1
    11     7     6   ar
    12    19    12    1
    13     6    13   ar
    14    12     2   ar
    15    13     2   ar
    16    13    14    1
    17     2     1    1
    18     3     1    1
    19     1     5    1
    20     1     4    1
@<TRIPOS>SUBSTRUCTURE
  1 LIG 1 TEMP
