@<TRIPOS>MOLECULE
LIG
42 45 1 0 0
SMALL
USER_CHARGES
****
generated by FESetup
@<TRIPOS>ATOM
     1 H1      18.9897    16.4438    18.9373 ha    1 LIG  0.132862
     2 C2      18.1790    16.1708    18.2682 ca    1 LIG -0.083138
     3 C3      16.8267    16.0137    18.6929 ca    1 LIG -0.159138
     4 H4      16.6013    16.2072    19.7375 ha    1 LIG  0.127862
     5 C5      15.8438    15.4355    17.8995 ca    1 LIG -0.112138
     6 H6      14.8253    15.3638    18.2696 ha    1 LIG  0.127862
     7 C7      16.2009    15.0958    16.5545 ca    1 LIG -0.088438
     8 C8      17.4984    15.3121    16.1512 ca    1 LIG -0.041338
     9 N9      18.0765    15.0505    14.8996 na    1 LIG -0.192538
    10 C10     18.4626    15.9014    16.9816 ca    1 LIG -0.095938
    11 C11     19.6888    15.9718    16.2202 cc    1 LIG -0.190338
    12 C12     19.4651    15.3969    14.9313 cd    1 LIG -0.111238
    13 C13     15.0267    14.7557    15.6156 c3    1 LIG -0.016538
    14 H14     14.1935    14.4514    16.2609 hc    1 LIG  0.055562
    15 C15     14.7015    15.9350    14.7016 c3    1 LIG -0.081538
    16 H16     13.6378    16.1795    14.8110 hc    1 LIG  0.049562
    17 H17     15.1870    16.8435    15.0788 hc    1 LIG  0.049562
    18 C18     15.1121    15.5851    13.2554 c3    1 LIG -0.084538
    19 H19     14.4936    16.0495    12.4776 hc    1 LIG  0.039562
    20 H20     16.1212    15.9208    12.9868 hc    1 LIG  0.039562
    21 C21     15.0113    13.9721    13.1845 c3    1 LIG -0.084538
    22 H22     13.9901    13.7006    12.8899 hc    1 LIG  0.039562
    23 H23     15.7784    13.6355    12.4765 hc    1 LIG  0.039562
    24 C24     15.3502    13.5887    14.6130 c3    1 LIG -0.081538
    25 H25     14.7836    12.7203    14.9710 hc    1 LIG  0.049562
    26 H26     16.3908    13.2530    14.5250 hc    1 LIG  0.049562
    27 H27     20.7098    16.2305    16.4754 ha    1 LIG  0.154862
    28 H28     20.1235    15.3018    14.0783 zz    1 LIG  0.162862
    29 H29     17.6309    14.8078    14.0264 hn    1 LIG  0.304562
    30 DU30    20.8622    14.5305    14.3285 du    1 LIG  0.000000
    31 DU31    19.4526    14.9586    12.7463 du    1 LIG  0.000000
    32 DU32    20.1972    14.4981    12.0833 du    1 LIG  0.000000
    33 DU33    18.6215    14.2520    12.8177 du    1 LIG  0.000000
    34 DU34    19.0268    16.2939    12.1389 du    1 LIG  0.000000
    35 DU35    19.1896    16.2977    11.0553 du    1 LIG  0.000000
    36 DU36    17.9611    16.4796    12.3098 du    1 LIG  0.000000
    37 DU37    19.8645    17.3653    12.8321 du    1 LIG  0.000000
    38 DU38    20.3983    17.9958    12.1136 du    1 LIG  0.000000
    39 DU39    19.2141    18.0210    13.4231 du    1 LIG  0.000000
    40 DU40    20.8333    16.6173    13.7417 du    1 LIG  0.000000
    41 DU41    21.7536    16.4021    13.1845 du    1 LIG  0.000000
    42 DU42    21.1125    17.2152    14.6149 du    1 LIG  0.000000
@<TRIPOS>BOND
     0      1      2 1
     1      2      3 1
     2      2     10 1
     3      3      4 1
     4      3      5 1
     5      5      6 1
     6      5      7 1
     7      7      8 1
     8      7     13 1
     9      8      9 1
    10      8     10 1
    11      9     29 1
    12      9     12 1
    13     10     11 1
    14     11     27 1
    15     11     12 1
    16     12     28 1
    17     13     24 1
    18     13     14 1
    19     13     15 1
    20     15     18 1
    21     15     16 1
    22     15     17 1
    23     18     19 1
    24     18     20 1
    25     18     21 1
    26     21     22 1
    27     21     23 1
    28     21     24 1
    29     24     25 1
    30     24     26 1
    31     28     40 1
    32     28     30 1
    33     28     31 1
    34     31     32 1
    35     31     33 1
    36     31     34 1
    37     34     35 1
    38     34     36 1
    39     34     37 1
    40     37     38 1
    41     37     39 1
    42     37     40 1
    43     40     41 1
    44     40     42 1
@<TRIPOS>SUBSTRUCTURE
  1 LIG 1 TEMP
