@<TRIPOS>MOLECULE
LIG
15 15 1 0 0
SMALL
USER_CHARGES
****
generated by FESetup
@<TRIPOS>ATOM
     1 C1      13.7268    13.7209    14.2202 c3    1 LIG -0.108400
     2 H2      13.4436    12.7928    13.7085 zz    1 LIG  0.027100
     3 H3      13.4122    14.5815    13.6172 hc    1 LIG  0.027100
     4 H4      14.8070    13.7653    14.4052 hc    1 LIG  0.027100
     5 H5      13.1706    13.8146    15.1609 hc    1 LIG  0.027100
     6 DU6     12.6690    12.8211    12.5417 du    1 LIG  0.000000
     7 DU7     12.3079    11.6324    11.9053 du    1 LIG  0.000000
     8 DU8     12.7126    10.4070    12.4313 du    1 LIG  0.000000
     9 DU9     13.4795    10.3690    13.5934 du    1 LIG  0.000000
    10 DU10    13.8423    11.5559    14.2303 du    1 LIG  0.000000
    11 DU11    12.3429    13.7683    12.1200 du    1 LIG  0.000000
    12 DU12    11.7081    11.6629    10.9994 du    1 LIG  0.000000
    13 DU13    12.4298     9.4820    11.9346 du    1 LIG  0.000000
    14 DU14    13.7947     9.4135    14.0054 du    1 LIG  0.000000
    15 DU15    14.4392    11.5128    15.1389 du    1 LIG  0.000000
@<TRIPOS>BOND
     0      1      2 1
     1      1      3 1
     2      1      4 1
     3      1      5 1
     4      2      6 1
     5      2     10 1
     6      6      7 1
     7      6     11 1
     8      7      8 1
     9      7     12 1
    10      8      9 1
    11      8     13 1
    12      9     10 1
    13      9     14 1
    14     10     15 1
@<TRIPOS>SUBSTRUCTURE
  1 LIG 1 TEMP
