@<TRIPOS>MOLECULE
LIG
17 16 1 0 0
SMALL
USER_CHARGES
****
generated by FESetup
@<TRIPOS>ATOM
     1 C1      13.4219    13.6705    11.5540 c3    1 LIG -0.060235
     2 C2      13.6960    14.1654    10.6142 c3    1 LIG -0.085335
     3 C3      12.4737    13.1376    11.4117 c3    1 LIG -0.085335
     4 C4      13.1973    14.4117    12.3308 c3    1 LIG -0.085335
     5 C5      14.2217    13.0052    11.9016 c3    1 LIG -0.085335
     6 H6      14.6395    14.7123    10.7155 hc    1 LIG  0.033465
     7 H7      12.9267    14.8822    10.3058 hc    1 LIG  0.033465
     8 H8      13.8169    13.4369     9.8049 hc    1 LIG  0.033465
     9 H9      12.1647    12.6275    12.3305 hc    1 LIG  0.033465
    10 H10     12.5603    12.3816    10.6234 hc    1 LIG  0.033465
    11 H11     11.6715    13.8262    11.1266 hc    1 LIG  0.033465
    12 H12     12.9203    13.9259    13.2728 hc    1 LIG  0.033465
    13 H13     12.3645    15.0577    12.0312 hc    1 LIG  0.033465
    14 H14     14.0628    15.0535    12.5278 hc    1 LIG  0.033465
    15 H15     13.9466    12.5120    12.8403 hc    1 LIG  0.033465
    16 H16     15.1510    13.5599    12.0755 hc    1 LIG  0.033465
    17 H17     14.4340    12.2230    11.1641 hc    1 LIG  0.033465
@<TRIPOS>BOND
     0      1      2 1
     1      1      3 1
     2      1      4 1
     3      1      5 1
     4      2      6 1
     5      2      7 1
     6      2      8 1
     7      3      9 1
     8      3     10 1
     9      3     11 1
    10      4     12 1
    11      4     13 1
    12      4     14 1
    13      5     15 1
    14      5     16 1
    15      5     17 1
@<TRIPOS>SUBSTRUCTURE
  1 LIG 1 TEMP
