@<TRIPOS>MOLECULE
LIG
15 15 1 0 0
SMALL
USER_CHARGES
****
generated by FESetup
@<TRIPOS>ATOM
     1 C1      13.9326    13.9489    13.9728 c3    1 LIG -0.053800
     2 C2      15.4496    13.8199    13.8635 ca    1 LIG -0.077300
     3 H8      13.4243    13.7105    13.0304 hc    1 LIG  0.044033
     4 H9      13.6407    14.9415    14.3369 hc    1 LIG  0.044033
     5 H10     13.5090    13.3183    14.7640 hc    1 LIG  0.044033
     6 H15     15.4670    11.7070    13.3951 ha    1 LIG  0.130000
     7 H14     17.9102    11.4186    13.4507 ha    1 LIG  0.130000
     8 H13     19.3481    13.3253    13.8664 ha    1 LIG  0.130000
     9 H12     18.2793    15.6001    14.4784 ha    1 LIG  0.130000
    10 H11     15.8542    15.7886    14.6060 ha    1 LIG  0.130000
    11 C7      16.0868    12.5779    13.5867 ca    1 LIG -0.131000
    12 C6      17.4531    12.3822    13.6556 ca    1 LIG -0.127000
    13 C5      18.2758    13.4956    13.8897 ca    1 LIG -0.135000
    14 C4      17.6727    14.7221    14.2772 ca    1 LIG -0.127000
    15 C3      16.3032    14.8550    14.2801 ca    1 LIG -0.131000
@<TRIPOS>BOND
     0      1      2 1
     1      1      3 1
     2      1      4 1
     3      1      5 1
     4      2     11 1
     5      2     15 1
     6      6     11 1
     7      7     12 1
     8      8     13 1
     9      9     14 1
    10     10     15 1
    11     11     12 1
    12     12     13 1
    13     13     14 1
    14     14     15 1
@<TRIPOS>SUBSTRUCTURE
  1 LIG 1 TEMP
