@<TRIPOS>MOLECULE
LIG
15 15 1 0 0
SMALL
USER_CHARGES
****
generated by FESetup
@<TRIPOS>ATOM
     1 C1       1.0920     0.0290    -0.0040 c3    1 LIG -0.108400
     2 H2       2.1850     0.0270    -0.0190 zz    1 LIG  0.027100
     3 H3       0.7200    -0.8570    -0.5230 hc    1 LIG  0.027100
     4 H4       0.7230     0.9260    -0.5050 hc    1 LIG  0.027100
     5 H5       0.7430     0.0190     1.0300 hc    1 LIG  0.027100
     6 DU6      2.8964    -1.0695    -0.5227 du    1 LIG  0.000000
     7 DU7      4.2923    -1.0631    -0.5278 du    1 LIG  0.000000
     8 DU8      4.9882     0.0349    -0.0257 du    1 LIG  0.000000
     9 DU9      4.2891     1.1280     0.4810 du    1 LIG  0.000000
    10 DU10     2.8941     1.1239     0.4860 du    1 LIG  0.000000
    11 DU11     2.3690    -1.9349    -0.9155 du    1 LIG  0.000000
    12 DU12     4.8369    -1.9171    -0.9220 du    1 LIG  0.000000
    13 DU13     6.0755     0.0379    -0.0299 du    1 LIG  0.000000
    14 DU14     4.8310     1.9846     0.8741 du    1 LIG  0.000000
    15 DU15     2.3597     1.9826     0.8870 du    1 LIG  0.000000
@<TRIPOS>BOND
     0      1      2 1
     1      1      3 1
     2      1      4 1
     3      1      5 1
     4      2      6 1
     5      2     10 1
     6      6      7 1
     7      6     11 1
     8      7      8 1
     9      7     12 1
    10      8      9 1
    11      8     13 1
    12      9     10 1
    13      9     14 1
    14     10     15 1
@<TRIPOS>SUBSTRUCTURE
  1 LIG 1 TEMP
