@<TRIPOS>MOLECULE
LIG
8 7 1 0 0
SMALL
USER_CHARGES
****
generated by FESetup
@<TRIPOS>ATOM
     1 C1      13.4219    13.6705    11.5540 c3    1 LIG -0.108400
     2 H2      13.6960    14.1654    10.6142 hc    1 LIG  0.027100
     3 H3      12.4737    13.1376    11.4117 hc    1 LIG  0.027100
     4 H4      13.1973    14.4117    12.3308 hc    1 LIG  0.027100
     5 H5      14.2217    13.0052    11.9016 hc    1 LIG  0.027100
     6 DU6     12.9224    14.8798    10.3165 du    1 LIG  0.000000
     7 DU7     13.8133    13.4304     9.8133 du    1 LIG  0.000000
     8 DU8     14.6396    14.7065    10.7272 du    1 LIG  0.000000
@<TRIPOS>BOND
     0      1      2 1
     1      1      3 1
     2      1      4 1
     3      1      5 1
     4      2      6 1
     5      2      7 1
     6      2      8 1
@<TRIPOS>SUBSTRUCTURE
  1 LIG 1 TEMP
