@<TRIPOS>MOLECULE
LIG
17 16 1 0 0
SMALL
USER_CHARGES
****
generated by FESetup
@<TRIPOS>ATOM
     1 C2      12.5910    12.2045    13.4136 c3    1 LIG -0.085335
     2 C1      12.9475    11.6573    14.2887 c3    1 LIG -0.060235
     3 H6      12.9492    13.2360    13.4088 hc    1 LIG  0.033465
     4 H7      11.4999    12.1823    13.4525 hc    1 LIG  0.033465
     5 H8      12.9447    11.6897    12.5178 hc    1 LIG  0.033465
     6 C3      12.4133    10.2185    14.2462 c3    1 LIG -0.085335
     7 C4      12.4470    12.3508    15.5651 c3    1 LIG -0.085335
     8 C5      14.4827    11.6344    14.2884 c3    1 LIG -0.085335
     9 H9      12.7560     9.6434    15.1133 hc    1 LIG  0.033465
    10 H10     12.7540     9.6976    13.3446 hc    1 LIG  0.033465
    11 H11     11.3185    10.2025    14.2470 hc    1 LIG  0.033465
    12 H12     12.7878    11.8222    16.4621 hc    1 LIG  0.033465
    13 H13     11.3522    12.3839    15.5932 hc    1 LIG  0.033465
    14 H14     12.8133    13.3813    15.6254 hc    1 LIG  0.033465
    15 H15     14.8708    11.0912    15.1569 hc    1 LIG  0.033465
    16 H16     14.8942    12.6500    14.3183 hc    1 LIG  0.033465
    17 H17     14.8708    11.1444    13.3883 hc    1 LIG  0.033465
@<TRIPOS>BOND
     0      1      2 1
     1      1      3 1
     2      1      4 1
     3      1      5 1
     4      2      6 1
     5      2      7 1
     6      2      8 1
     7      6      9 1
     8      6     10 1
     9      6     11 1
    10      7     12 1
    11      7     13 1
    12      7     14 1
    13      8     15 1
    14      8     16 1
    15      8     17 1
@<TRIPOS>SUBSTRUCTURE
  1 LIG 1 TEMP
