@<TRIPOS>MOLECULE
LIG
8 7 1 0 0
SMALL
USER_CHARGES
****
generated by FESetup
@<TRIPOS>ATOM
     1 C1      13.7781    13.5923    12.9108 c3    1 LIG  0.116700
     2 O2      14.0504    14.6064    14.0946 oh    1 LIG -0.598800
     3 H3      14.3413    12.6795    13.1404 h1    1 LIG  0.028700
     4 H4      14.0962    13.9777    11.9344 h1    1 LIG  0.028700
     5 H5      12.7094    13.3633    12.8174 h1    1 LIG  0.028700
     6 H6      13.5219    15.5053    13.7544 ho    1 LIG  0.396000
     7 DU7     15.1019    14.8430    14.2986 du    1 LIG  0.000000
     8 DU8     13.5849    14.2443    15.0195 du    1 LIG  0.000000
@<TRIPOS>BOND
     0      1      2 1
     1      1      3 1
     2      1      4 1
     3      1      5 1
     4      2      6 1
     5      2      7 1
     6      2      8 1
@<TRIPOS>SUBSTRUCTURE
  1 LIG 1 TEMP
