@<TRIPOS>MOLECULE
LIG
    8     7     1     0     1 
SMALL
USER_CHARGES
@<TRIPOS>ATOM
  1 C1      1.002000   -0.078000    0.040000 c3    1 LIG    -0.0944 ****
  2 C2      2.514000   -0.089000    0.035000 c3    1 LIG    -0.0944 ****
  3 H3      0.615000   -0.804000    0.762000 hc    1 LIG     0.0315 ****
  4 H4      0.611000   -0.335000   -0.949000 hc    1 LIG     0.0315 ****
  5 H5      0.625000    0.912000    0.313000 hc    1 LIG     0.0315 ****
  6 H6      2.890000   -1.080000   -0.237000 hc    1 LIG     0.0315 ****
  7 H7      2.903000    0.168000    1.024000 hc    1 LIG     0.0315 ****
  8 H8      2.900000    0.636000   -0.687000 hc    1 LIG     0.0315 ****
@<TRIPOS>BOND
    1     1     2 1
    2     1     3 1
    3     1     4 1
    4     1     5 1
    5     2     6 1
    6     2     7 1
    7     2     8 1
@<TRIPOS>SUBSTRUCTURE
      1  LIG              1 ****               0 ****  **** 
