@<TRIPOS>MOLECULE
solute.pdb
 8 7 0 0 0
SMALL
GASTEIGER

@<TRIPOS>ATOM
      1 C1          1.0020   -0.0780    0.0400 C.3     1  LIG        -0.0681
      2 C2          2.5140   -0.0890    0.0350 C.3     1  LIG        -0.0681
      3 H3          0.6150   -0.8040    0.7620 H       1  LIG         0.0227
      4 H4          0.6110   -0.3350   -0.9490 H       1  LIG         0.0227
      5 H5          0.6250    0.9120    0.3130 H       1  LIG         0.0227
      6 H6          2.8900   -1.0800   -0.2370 H       1  LIG         0.0227
      7 H7          2.9030    0.1680    1.0240 H       1  LIG         0.0227
      8 H8          2.9000    0.6360   -0.6870 H       1  LIG         0.0227
@<TRIPOS>BOND
     1     1     2    1
     2     1     3    1
     3     1     4    1
     4     1     5    1
     5     2     6    1
     6     2     7    1
     7     2     8    1
