@<TRIPOS>MOLECULE
LIG
5 4 1 0 0
SMALL
USER_CHARGES
****
generated by FESetup
@<TRIPOS>ATOM
     1 H2      14.5310    14.0256    15.4614 hc    1 LIG  0.027100
     2 C1      14.1803    15.3821    14.7261 c3    1 LIG -0.108400
     3 H3      14.4727    16.2011    15.3947 hc    1 LIG  0.027100
     4 H4      13.1275    15.3799    14.4182 hc    1 LIG  0.027100
     5 H5      14.7798    15.4666    13.8115 hc    1 LIG  0.027100
@<TRIPOS>BOND
     0      1      2 1
     1      2      3 1
     2      2      4 1
     3      2      5 1
@<TRIPOS>SUBSTRUCTURE
  1 LIG 1 TEMP
