@<TRIPOS>MOLECULE
LIG
17 16 1 0 0
SMALL
USER_CHARGES
****
generated by FESetup
@<TRIPOS>ATOM
     1 C1      13.7268    13.7209    14.2202 c3    1 LIG -0.108400
     2 H2      13.4436    12.7928    13.7085 zz    1 LIG  0.027100
     3 H3      13.4122    14.5815    13.6172 hc    1 LIG  0.027100
     4 H4      14.8070    13.7653    14.4052 hc    1 LIG  0.027100
     5 H5      13.1706    13.8146    15.1609 hc    1 LIG  0.027100
     6 DU6     13.8863    11.5877    14.5504 du    1 LIG  0.000000
     7 DU7     14.1291    12.7359    12.3346 du    1 LIG  0.000000
     8 DU8     11.9202    12.7553    13.5210 du    1 LIG  0.000000
     9 DU9     13.6156    10.6442    14.0640 du    1 LIG  0.000000
    10 DU10    13.4130    11.6014    15.5385 du    1 LIG  0.000000
    11 DU11    14.9709    11.5864    14.7002 du    1 LIG  0.000000
    12 DU12    13.8665    11.8169    11.7992 du    1 LIG  0.000000
    13 DU13    15.2198    12.7626    12.4361 du    1 LIG  0.000000
    14 DU14    13.8318    13.5839    11.7084 du    1 LIG  0.000000
    15 DU15    11.6064    11.8380    13.0111 du    1 LIG  0.000000
    16 DU16    11.5736    13.6056    12.9222 du    1 LIG  0.000000
    17 DU17    11.4018    12.7942    14.4857 du    1 LIG  0.000000
@<TRIPOS>BOND
     0      1      2 1
     1      1      3 1
     2      1      4 1
     3      1      5 1
     4      2      6 1
     5      2      7 1
     6      2      8 1
     7      6      9 1
     8      6     10 1
     9      6     11 1
    10      7     12 1
    11      7     13 1
    12      7     14 1
    13      8     15 1
    14      8     16 1
    15      8     17 1
@<TRIPOS>SUBSTRUCTURE
  1 LIG 1 TEMP
