@<TRIPOS>MOLECULE
LIG
 5 4 0 0 0
SMALL
USER_CHARGES
****
generated by FESetup
@<TRIPOS>ATOM
      1 C1          0.9900    0.0370   -0.0980 C.3     1  LIG1       -0.0580
      2 C2          2.4550   -0.1450   -0.0980 C.3     1  LIG1       -0.0127
      3 H7          0.7190    1.0980   -0.0830 H       1  LIG1        0.0236
      4 H8          0.5470   -0.4390    0.7820 H       1  LIG1        0.0236
      5 H9          0.5490   -0.4140   -0.9920 H       1  LIG1        0.0236
@<TRIPOS>BOND
     1     1     2    1
     2     1     3    1
     3     1     4    1
     4     1     5    1
