@<TRIPOS>MOLECULE
LIG
17 16 1 0 0
SMALL
USER_CHARGES
****
generated by FESetup
@<TRIPOS>ATOM
     1 C1       1.0920     0.0290    -0.0040 c3    1 LIG -0.108400
     2 H2       2.1850     0.0270    -0.0190 zz    1 LIG  0.027100
     3 H3       0.7200    -0.8570    -0.5230 hc    1 LIG  0.027100
     4 H4       0.7230     0.9260    -0.5050 hc    1 LIG  0.027100
     5 H5       0.7430     0.0190     1.0300 hc    1 LIG  0.027100
     6 DU6      2.7099     1.2735     0.7076 du    1 LIG  0.000000
     7 DU7      2.6771     0.0387    -1.4745 du    1 LIG  0.000000
     8 DU8      2.7049    -1.2342     0.6857 du    1 LIG  0.000000
     9 DU9      3.8050     1.2986     0.7096 du    1 LIG  0.000000
    10 DU10     2.3739     1.2932     1.7502 du    1 LIG  0.000000
    11 DU11     2.3561     2.1909     0.2258 du    1 LIG  0.000000
    12 DU12     3.7716     0.0391    -1.5220 du    1 LIG  0.000000
    13 DU13     2.3199     0.9284    -2.0050 du    1 LIG  0.000000
    14 DU14     2.3194    -0.8409    -2.0204 du    1 LIG  0.000000
    15 DU15     3.7999    -1.2646     0.6863 du    1 LIG  0.000000
    16 DU16     2.3457    -2.1426     0.1883 du    1 LIG  0.000000
    17 DU17     2.3700    -1.2710     1.7285 du    1 LIG  0.000000
@<TRIPOS>BOND
     0      1      2 1
     1      1      3 1
     2      1      4 1
     3      1      5 1
     4      2      6 1
     5      2      7 1
     6      2      8 1
     7      6      9 1
     8      6     10 1
     9      6     11 1
    10      7     12 1
    11      7     13 1
    12      7     14 1
    13      8     15 1
    14      8     16 1
    15      8     17 1
@<TRIPOS>SUBSTRUCTURE
  1 LIG 1 TEMP
