@<TRIPOS>MOLECULE
L1
15 15 1 0 0
SMALL
USER_CHARGES
****
generated by FESetup
@<TRIPOS>ATOM
     1 C1      13.4219    13.6705    11.5540 c3    1 L1 -0.053800
     2 C2      13.6960    14.1654    10.6142 ca    1 L1 -0.077300
     3 H8      12.4737    13.1376    11.4117 hc    1 L1  0.044033
     4 H9      13.1973    14.4117    12.3308 hc    1 L1  0.044033
     5 H10     14.2217    13.0052    11.9016 hc    1 L1  0.044033
     6 C3      12.9534    13.9538     9.4455 ca    1 L1 -0.131000
     7 C4      13.3182    14.5827     8.2539 ca    1 L1 -0.127000
     8 C5      14.4295    15.4230     8.2187 ca    1 L1 -0.135000
     9 C6      15.1763    15.6360     9.3750 ca    1 L1 -0.127000
    10 C7      14.8126    15.0092    10.5670 ca    1 L1 -0.131000
    11 H11     12.0856    13.2994     9.4552 ha    1 L1  0.130000
    12 H12     12.7358    14.4146     7.3517 ha    1 L1  0.130000
    13 H13     14.7126    15.9115     7.2895 ha    1 L1  0.130000
    14 H14     16.0441    16.2903     9.3484 ha    1 L1  0.130000
    15 H15     15.4057    15.1815    11.4627 ha    1 L1  0.130000
@<TRIPOS>BOND
     0      1      2 1
     1      1      3 1
     2      1      4 1
     3      1      5 1
     4      2      6 1
     5      2     10 1
     6      6      7 1
     7      6     11 1
     8      7      8 1
     9      7     12 1
    10      8      9 1
    11      8     13 1
    12      9     10 1
    13      9     14 1
    14     10     15 1
@<TRIPOS>SUBSTRUCTURE
  1 L1 1 TEMP
