@<TRIPOS>MOLECULE
LIG
   15    15     1     0     1 
SMALL
USER_CHARGES
@<TRIPOS>ATOM
  1 C1      0.926000    0.081000    0.017000 c3    1 LIG    -0.0538 ****
  2 C2      2.423000    0.110000   -0.069000 ca    1 LIG    -0.0773 ****
  3 C3      3.118000    1.325000   -0.122000 ca    1 LIG    -0.1310 ****
  4 C4      4.511000    1.338000   -0.211000 ca    1 LIG    -0.1270 ****
  5 C5      5.220000    0.139000   -0.253000 ca    1 LIG    -0.1350 ****
  6 C6      4.537000   -1.074000   -0.205000 ca    1 LIG    -0.1270 ****
  7 C7      3.145000   -1.089000   -0.115000 ca    1 LIG    -0.1310 ****
  8 H8      0.511000    1.087000    0.142000 hc    1 LIG     0.0440 ****
  9 H9      0.608000   -0.518000    0.877000 hc    1 LIG     0.0440 ****
 10 H10     0.506000   -0.349000   -0.897000 hc    1 LIG     0.0440 ****
 11 H11     2.580000    2.269000   -0.093000 ha    1 LIG     0.1300 ****
 12 H12     5.043000    2.285000   -0.250000 ha    1 LIG     0.1300 ****
 13 H13     6.305000    0.151000   -0.323000 ha    1 LIG     0.1300 ****
 14 H14     5.089000   -2.010000   -0.239000 ha    1 LIG     0.1300 ****
 15 H15     2.623000   -2.043000   -0.081000 ha    1 LIG     0.1300 ****
@<TRIPOS>BOND
    1     1     2 1
    2     1     8 1
    3     1     9 1
    4     1    10 1
    5     2     3 1
    6     2     7 1
    7     3     4 1
    8     3    11 1
    9     4     5 1
   10     4    12 1
   11     5     6 1
   12     5    13 1
   13     6     7 1
   14     6    14 1
   15     7    15 1
@<TRIPOS>SUBSTRUCTURE
      1  LIG              1 ****               0 ****  **** 
