@<TRIPOS>MOLECULE
solute.pdb
 15 15 0 0 0
SMALL
GASTEIGER

@<TRIPOS>ATOM
      1 C1          0.9260    0.0810    0.0170 C.3     1  LIG        -0.0397
      2 C2          2.4230    0.1100   -0.0690 C.ar    1  LIG        -0.0504
      3 C3          3.1180    1.3250   -0.1220 C.ar    1  LIG        -0.0588
      4 C4          4.5110    1.3380   -0.2110 C.ar    1  LIG        -0.0615
      5 C5          5.2200    0.1390   -0.2530 C.ar    1  LIG        -0.0617
      6 C6          4.5370   -1.0740   -0.2050 C.ar    1  LIG        -0.0615
      7 C7          3.1450   -1.0890   -0.1150 C.ar    1  LIG        -0.0588
      8 H8          0.5110    1.0870    0.1420 H       1  LIG         0.0278
      9 H9          0.6080   -0.5180    0.8770 H       1  LIG         0.0278
     10 H10         0.5060   -0.3490   -0.8970 H       1  LIG         0.0278
     11 H11         2.5800    2.2690   -0.0930 H       1  LIG         0.0620
     12 H12         5.0430    2.2850   -0.2500 H       1  LIG         0.0618
     13 H13         6.3050    0.1510   -0.3230 H       1  LIG         0.0618
     14 H14         5.0890   -2.0100   -0.2390 H       1  LIG         0.0618
     15 H15         2.6230   -2.0430   -0.0810 H       1  LIG         0.0620
@<TRIPOS>BOND
     1     1     2    1
     2     1     8    1
     3     1     9    1
     4     1    10    1
     5     2     3   ar
     6     2     7   ar
     7     3     4   ar
     8     3    11    1
     9     4     5   ar
    10     4    12    1
    11     5     6   ar
    12     5    13    1
    13     6     7   ar
    14     6    14    1
    15     7    15    1
