@<TRIPOS>MOLECULE
LIG
12 12 1 0 0
SMALL
USER_CHARGES
****
generated by FESetup
@<TRIPOS>ATOM
     1 C1      14.1797    16.5841    13.5457 c3    1 LIG -0.131483
     2 C2      15.5439    16.2037    13.8792 cc    1 LIG  0.248917
     3 O3      16.5388    16.7210    13.1594 os    1 LIG -0.366883
     4 C4      17.6244    16.3048    13.8638 cc    1 LIG  0.233517
     5 C5      17.3069    15.5444    14.9417 cd    1 LIG -0.261383
     6 C6      15.8921    15.3633    14.9209 cd    1 LIG -0.265383
     7 H7      13.5184    16.0399    14.2311 hc    1 LIG  0.057617
     8 H8      13.9664    16.4459    12.4787 hc    1 LIG  0.057617
     9 H9      14.1560    17.6341    13.8625 hc    1 LIG  0.057617
    10 H10     18.5414    16.5498    13.3449 h4    1 LIG  0.051017
    11 H11     18.0433    15.1795    15.6481 ha    1 LIG  0.158917
    12 H12     15.2910    14.8265    15.6454 ha    1 LIG  0.159917
@<TRIPOS>BOND
     0      1      2 1
     1      1      7 1
     2      1      8 1
     3      1      9 1
     4      2      3 1
     5      2      6 1
     6      3      4 1
     7      4      5 1
     8      4     10 1
     9      5      6 1
    10      5     11 1
    11      6     12 1
@<TRIPOS>SUBSTRUCTURE
  1 LIG 1 TEMP
