@<TRIPOS>MOLECULE
LIG
   12    12     1     0     0
SMALL
No Charge or Current Charge


@<TRIPOS>ATOM
      1 C1           0.9900     0.0370    -0.0980 c3         1 LIG      -0.131483
      2 C2           2.4550    -0.1450    -0.0980 cc         1 LIG       0.248917
      3 O3           3.2120     0.9870    -0.1040 os         1 LIG      -0.366883
      4 C4           4.5120     0.5940    -0.1040 cc         1 LIG       0.233517
      5 C5           4.6000    -0.7780    -0.0980 cd         1 LIG      -0.261383
      6 C6           3.2690    -1.2580    -0.0950 cd         1 LIG      -0.265383
      7 H7           0.7190     1.0980    -0.0830 hc         1 LIG       0.057617
      8 H8           0.5470    -0.4390     0.7820 hc         1 LIG       0.057617
      9 H9           0.5490    -0.4140    -0.9920 hc         1 LIG       0.057617
     10 H10          5.2400     1.3930    -0.1080 h4         1 LIG       0.051017
     11 H11          5.5120    -1.3580    -0.0970 ha         1 LIG       0.158917
     12 H12          2.9400    -2.2880    -0.0900 ha         1 LIG       0.159917
@<TRIPOS>BOND
     1     1     2 1   
     2     1     7 1   
     3     1     8 1   
     4     1     9 1   
     5     2     3 1   
     6     2     6 2   
     7     3     4 1   
     8     4     5 2   
     9     4    10 1   
    10     5     6 1   
    11     5    11 1   
    12     6    12 1   
@<TRIPOS>SUBSTRUCTURE
     1 LIG         1 TEMP              0 ****  ****    0 ROOT
