@<TRIPOS>MOLECULE
LIG
   12    12     1     0     1 
SMALL
USER_CHARGES
@<TRIPOS>ATOM
  1 C1      0.990000    0.037000   -0.098000 c3    1 LIG    -0.1315 ****
  2 C2      2.455000   -0.145000   -0.098000 cc    1 LIG     0.2489 ****
  3 O3      3.212000    0.987000   -0.104000 os    1 LIG    -0.3669 ****
  4 C4      4.512000    0.594000   -0.104000 cc    1 LIG     0.2335 ****
  5 C5      4.600000   -0.778000   -0.098000 cd    1 LIG    -0.2614 ****
  6 C6      3.269000   -1.258000   -0.095000 cd    1 LIG    -0.2654 ****
  7 H7      0.719000    1.098000   -0.083000 hc    1 LIG     0.0576 ****
  8 H8      0.547000   -0.439000    0.782000 hc    1 LIG     0.0576 ****
  9 H9      0.549000   -0.414000   -0.992000 hc    1 LIG     0.0576 ****
 10 H10     5.240000    1.393000   -0.108000 h4    1 LIG     0.0510 ****
 11 H11     5.512000   -1.358000   -0.097000 ha    1 LIG     0.1589 ****
 12 H12     2.940000   -2.288000   -0.090000 ha    1 LIG     0.1599 ****
@<TRIPOS>BOND
    1     1     2 1
    2     1     7 1
    3     1     8 1
    4     1     9 1
    5     2     3 1
    6     2     6 1
    7     3     4 1
    8     4     5 1
    9     4    10 1
   10     5     6 1
   11     5    11 1
   12     6    12 1
@<TRIPOS>SUBSTRUCTURE
      1  LIG              1 ****               0 ****  **** 
