@<TRIPOS>MOLECULE
solute.pdb
 12 12 0 0 0
SMALL
GASTEIGER

@<TRIPOS>ATOM
      1 C1          0.9900    0.0370   -0.0980 C.3     1  LIG        -0.0064
      2 C2          2.4550   -0.1450   -0.0980 C.ar    1  LIG         0.1018
      3 O3          3.2120    0.9870   -0.1040 O.2     1  LIG        -0.4681
      4 C4          4.5120    0.5940   -0.1040 C.ar    1  LIG         0.0921
      5 C5          4.6000   -0.7780   -0.0980 C.ar    1  LIG        -0.0237
      6 C6          3.2690   -1.2580   -0.0950 C.ar    1  LIG        -0.0210
      7 H7          0.7190    1.0980   -0.0830 H       1  LIG         0.0308
      8 H8          0.5470   -0.4390    0.7820 H       1  LIG         0.0308
      9 H9          0.5490   -0.4140   -0.9920 H       1  LIG         0.0308
     10 H10         5.2400    1.3930   -0.1080 H       1  LIG         0.1029
     11 H11         5.5120   -1.3580   -0.0970 H       1  LIG         0.0649
     12 H12         2.9400   -2.2880   -0.0900 H       1  LIG         0.0652
@<TRIPOS>BOND
     1     1     2    1
     2     1     7    1
     3     1     8    1
     4     1     9    1
     5     2     3   ar
     6     2     6   ar
     7     3     4   ar
     8     4     5   ar
     9     4    10    1
    10     5     6   ar
    11     5    11    1
    12     6    12    1
