@<TRIPOS>MOLECULE
solute.pdb
 19 20 0 0 0
SMALL
GASTEIGER

@<TRIPOS>ATOM
      1 C1          1.2700   -0.1550    0.1940 C.3     1  LIG1       -0.0244
      2 C2          2.7030   -0.0190   -0.1620 C.ar    1  LIG1        0.0139
      3 N3          3.5000   -1.1160   -0.3830 N.ar    1  LIG1       -0.3581
      4 C4          4.7770   -0.7250   -0.7190 C.ar    1  LIG1        0.0467
      5 C5          5.9020   -1.4920   -1.0380 C.ar    1  LIG1       -0.0378
      6 C6          7.0830   -0.8100   -1.3480 C.ar    1  LIG1       -0.0598
      7 C7          7.1330    0.5820   -1.3340 C.ar    1  LIG1       -0.0611
      8 C8          5.9980    1.3340   -1.0090 C.ar    1  LIG1       -0.0526
      9 C9          4.7970    0.6680   -0.6970 C.ar    1  LIG1       -0.0001
     10 C10         3.4890    1.1000   -0.3410 C.ar    1  LIG1       -0.0337
     11 H11         0.7990    0.8270    0.3040 H       1  LIG1        0.0292
     12 H12         1.1570   -0.6950    1.1380 H       1  LIG1        0.0292
     13 H13         0.7310   -0.7020   -0.5860 H       1  LIG1        0.0292
     14 H14         3.1970   -2.0780   -0.3210 H       1  LIG1        0.1656
     15 H15         5.8670   -2.5770   -1.0500 H       1  LIG1        0.0638
     16 H16         7.9760   -1.3760   -1.6050 H       1  LIG1        0.0618
     17 H17         8.0610    1.0920   -1.5800 H       1  LIG1        0.0618
     18 H18         6.0430    2.4190   -1.0010 H       1  LIG1        0.0624
     19 H19         3.1600    2.1260   -0.2370 H       1  LIG1        0.0641
@<TRIPOS>BOND
     1     1     2    1
     2     1    11    1
     3     1    12    1
     4     1    13    1
     5     2    10   ar
     6     2     3   ar
     7     3     4   ar
     8     3    14    1
     9     4     9   ar
    10     4     5   ar
    11     5     6   ar
    12     5    15    1
    13     6     7   ar
    14     6    16    1
    15     7     8   ar
    16     7    17    1
    17     8     9   ar
    18     8    18    1
    19     9    10   ar
    20    10    19    1
