@<TRIPOS>MOLECULE
LIG
 6 5 0 0 0
SMALL
USER_CHARGES
****
generated by FESetup
@<TRIPOS>ATOM
      1 C1          0.9970   -0.0830    0.0560 C.3     1  LIG1        0.0330
      2 O2          2.4130   -0.0920    0.0600 O.3     1  LIG1       -0.3982
      3 H3          0.6360    0.3130   -0.8960 H       1  LIG1        0.0521
      4 H4          0.6340    0.5340    0.8820 H       1  LIG1        0.0521
      5 H5          0.6360   -1.1070    0.1830 H       1  LIG1        0.0521
      6 H6          2.7040    0.8290   -0.0540 H       1  LIG1        0.2090
@<TRIPOS>BOND
     1     1     2    1
     2     1     3    1
     3     1     4    1
     4     1     5    1
     5     2     6    1
