@<TRIPOS>MOLECULE
LIG
19 20 1 0 0
SMALL
USER_CHARGES
****
generated by FESetup
@<TRIPOS>ATOM
     1 C1      13.4219    13.6705    11.5540 c3    1 LIG -0.043953
     2 C2      13.6960    14.1654    10.6142 cc    1 LIG -0.059353
     3 H11     12.4737    13.1376    11.4117 hc    1 LIG  0.051314
     4 H12     13.1973    14.4117    12.3308 hc    1 LIG  0.051314
     5 H13     14.2217    13.0052    11.9016 hc    1 LIG  0.051314
     6 N3      14.8589    14.8861    10.4894 na    1 LIG -0.194453
     7 C4      14.9824    15.3858     9.2121 ca    1 LIG -0.042253
     8 C5      15.9988    16.1556     8.6376 ca    1 LIG -0.148053
     9 C6      15.8547    16.5186     7.2947 ca    1 LIG -0.113053
    10 C7      14.7361    16.1289     6.5617 ca    1 LIG -0.160053
    11 C8      13.7264    15.3612     7.1538 ca    1 LIG -0.083053
    12 C9      13.8527    14.9812     8.5040 ca    1 LIG -0.093853
    13 C10     13.0494    14.2189     9.3972 cd    1 LIG -0.185253
    14 H14     15.5393    15.0256    11.2234 hn    1 LIG  0.295647
    15 H15     16.8721    16.4612     9.2055 ha    1 LIG  0.129947
    16 H16     16.6291    17.1138     6.8152 ha    1 LIG  0.127947
    17 H17     14.6450    16.4206     5.5184 ha    1 LIG  0.127947
    18 H18     12.8574    15.0595     6.5768 ha    1 LIG  0.132947
    19 H19     12.1008    13.7520     9.1651 ha    1 LIG  0.154947
@<TRIPOS>BOND
     0      1      2 1
     1      1      3 1
     2      1      4 1
     3      1      5 1
     4      2      6 1
     5      2     13 1
     6      6      7 1
     7      6     14 1
     8      7      8 1
     9      7     12 1
    10      8      9 1
    11      8     15 1
    12      9     10 1
    13      9     16 1
    14     10     11 1
    15     10     17 1
    16     11     18 1
    17     11     12 1
    18     12     13 1
    19     13     19 1
@<TRIPOS>SUBSTRUCTURE
  1 LIG 1 TEMP
