@<TRIPOS>MOLECULE
L0
5 4 1 0 0
SMALL
USER_CHARGES
****
generated by FESetup
@<TRIPOS>ATOM
     1 C1      12.5910    12.2045    13.4136 c3    1 L0 -0.108400
     2 H2      12.9475    11.6573    14.2887 hc    1 L0  0.027100
     3 H3      12.9492    13.2360    13.4088 hc    1 L0  0.027100
     4 H4      11.4999    12.1823    13.4525 hc    1 L0  0.027100
     5 H5      12.9447    11.6897    12.5178 hc    1 L0  0.027100
@<TRIPOS>BOND
     0      1      2 1
     1      1      3 1
     2      1      4 1
     3      1      5 1
@<TRIPOS>SUBSTRUCTURE
  1 L0 1 TEMP
