@<TRIPOS>MOLECULE
LIG
8 7 1 0 0
SMALL
USER_CHARGES
****
generated by FESetup
@<TRIPOS>ATOM
     1 C1      13.3080    14.1806    13.3311 c3    1 LIG -0.094350
     2 C2      14.4615    13.7817    12.4029 c3    1 LIG -0.094350
     3 H3      13.6879    14.9517    14.0124 hc    1 LIG  0.031450
     4 H4      12.9557    13.3240    13.9187 hc    1 LIG  0.031450
     5 H5      12.4540    14.5604    12.7570 hc    1 LIG  0.031450
     6 H6      14.2130    12.9685    11.7100 hc    1 LIG  0.031450
     7 H7      15.3564    13.5716    13.0015 hc    1 LIG  0.031450
     8 H8      14.7347    14.6827    11.8401 hc    1 LIG  0.031450
@<TRIPOS>BOND
     0      1      2 1
     1      1      3 1
     2      1      4 1
     3      1      5 1
     4      2      6 1
     5      2      7 1
     6      2      8 1
@<TRIPOS>SUBSTRUCTURE
  1 LIG 1 TEMP
