@<TRIPOS>MOLECULE
LIG
42 45 1 0 0
SMALL
USER_CHARGES
****
generated by FESetup
@<TRIPOS>ATOM
     1 H1      16.0414    13.6991    19.9152 ha    1 LIG  0.131897
     2 C2      15.4561    13.8883    19.0201 ca    1 LIG -0.083103
     3 C3      13.9863    13.8777    18.9929 ca    1 LIG -0.160103
     4 H4      13.4726    13.6928    19.9317 ha    1 LIG  0.127897
     5 C5      13.2882    14.1277    17.8005 ca    1 LIG -0.114103
     6 H6      12.2054    14.1233    17.8830 ha    1 LIG  0.126897
     7 C7      13.9975    14.2885    16.5864 ca    1 LIG -0.147103
     8 H8      13.5181    14.6325    15.6746 zz    1 LIG  0.129897
     9 C9      15.4340    14.2807    16.6241 ca    1 LIG -0.043303
    10 N10     16.2907    14.6120    15.5837 na    1 LIG -0.187503
    11 C11     16.1141    14.1005    17.8052 ca    1 LIG -0.093903
    12 C12     17.5449    14.1051    17.4089 cc    1 LIG -0.187303
    13 C13     17.6089    14.5404    16.0707 cd    1 LIG -0.053403
    14 H14     16.0577    14.9260    14.6524 hn    1 LIG  0.298597
    15 H15     18.3889    13.9875    18.0784 ha    1 LIG  0.153897
    16 C16     18.8895    14.7531    15.3504 c3    1 LIG -0.010603
    17 H17     19.6262    14.0850    15.8131 hc    1 LIG  0.070597
    18 C18     18.6987    14.5045    13.8126 c3    1 LIG -0.081503
    19 H19     19.6082    14.0702    13.3799 hc    1 LIG  0.051097
    20 H20     17.7940    13.9364    13.5635 hc    1 LIG  0.051097
    21 C21     18.5929    15.9207    13.2776 c3    1 LIG -0.083503
    22 H22     18.8854    16.0583    12.2295 hc    1 LIG  0.041597
    23 H23     17.5190    16.1442    13.2757 hc    1 LIG  0.041597
    24 C24     19.3655    16.8853    14.1648 c3    1 LIG -0.083503
    25 H25     20.3947    17.0045    13.8047 hc    1 LIG  0.041597
    26 H26     18.8241    17.8391    14.1848 hc    1 LIG  0.041597
    27 C27     19.3975    16.2417    15.5396 c3    1 LIG -0.081503
    28 H28     20.4024    16.1218    15.9626 hc    1 LIG  0.051097
    29 H29     18.7677    16.7869    16.2532 hc    1 LIG  0.051097
    30 DU30    13.4007    15.7191    15.7724 du    1 LIG  0.000000
    31 DU31    14.1810    14.2989    14.3292 du    1 LIG  0.000000
    32 DU32    13.7190    14.9159    13.5457 du    1 LIG  0.000000
    33 DU33    15.2461    14.4885    14.2491 du    1 LIG  0.000000
    34 DU34    13.8223    12.8410    14.0646 du    1 LIG  0.000000
    35 DU35    13.7782    12.6265    12.9920 du    1 LIG  0.000000
    36 DU36    14.5685    12.1712    14.5063 du    1 LIG  0.000000
    37 DU37    12.4700    12.6363    14.7417 du    1 LIG  0.000000
    38 DU38    11.6932    12.3510    14.0258 du    1 LIG  0.000000
    39 DU39    12.5417    11.8384    15.4903 du    1 LIG  0.000000
    40 DU40    12.1431    13.9738    15.4073 du    1 LIG  0.000000
    41 DU41    11.5828    14.5951    14.6952 du    1 LIG  0.000000
    42 DU42    11.4918    13.8393    16.2721 du    1 LIG  0.000000
@<TRIPOS>BOND
     0      1      2 1
     1      2      3 1
     2      2     11 1
     3      3      4 1
     4      3      5 1
     5      5      6 1
     6      5      7 1
     7      7      8 1
     8      7      9 1
     9      8     40 1
    10      8     30 1
    11      8     31 1
    12      9     10 1
    13      9     11 1
    14     10     13 1
    15     10     14 1
    16     11     12 1
    17     12     13 1
    18     12     15 1
    19     13     16 1
    20     16     18 1
    21     16     27 1
    22     16     17 1
    23     18     19 1
    24     18     20 1
    25     18     21 1
    26     21     22 1
    27     21     23 1
    28     21     24 1
    29     24     25 1
    30     24     26 1
    31     24     27 1
    32     27     28 1
    33     27     29 1
    34     31     32 1
    35     31     33 1
    36     31     34 1
    37     34     35 1
    38     34     36 1
    39     34     37 1
    40     37     38 1
    41     37     39 1
    42     37     40 1
    43     40     41 1
    44     40     42 1
@<TRIPOS>SUBSTRUCTURE
  1 LIG 1 TEMP
