@<TRIPOS>MOLECULE
LIG
42 45 1 0 0
SMALL
USER_CHARGES
****
generated by FESetup
@<TRIPOS>ATOM
     1 H1      16.2264    16.7546    20.4537 ha    1 LIG  0.131931
     2 C2      15.9595    16.4381    19.4498 ca    1 LIG -0.083069
     3 C3      14.6313    16.4696    19.0520 ca    1 LIG -0.160069
     4 H4      13.7903    16.7622    19.6737 ha    1 LIG  0.127931
     5 C5      14.2003    15.9776    17.8126 ca    1 LIG -0.114069
     6 H6      13.1550    15.8171    17.5653 ha    1 LIG  0.126931
     7 C7      15.1952    15.7098    16.8423 ca    1 LIG -0.147069
     8 C9      16.5396    15.6959    17.2459 ca    1 LIG -0.044269
     9 N10     17.6851    15.2221    16.6034 na    1 LIG -0.187469
    10 C11     16.8720    16.0383    18.5108 ca    1 LIG -0.093869
    11 C12     18.2438    15.8458    18.7069 cc    1 LIG -0.187269
    12 C13     18.7726    15.4050    17.4975 cd    1 LIG -0.053369
    13 H8      14.7552    15.2763    15.4632 ha    1 LIG  0.129931
    14 DU30    13.6667    15.1437    15.4393 du    1 LIG  0.000000
    15 DU31    15.1177    16.3579    14.4245 du    1 LIG  0.000000
    16 DU32    14.3000    17.0817    14.3211 du    1 LIG  0.000000
    17 DU33    15.9737    16.9609    14.7513 du    1 LIG  0.000000
    18 DU34    15.3006    15.5766    13.1655 du    1 LIG  0.000000
    19 DU35    14.3259    15.3010    12.7445 du    1 LIG  0.000000
    20 DU36    15.7043    16.2020    12.3599 du    1 LIG  0.000000
    21 DU37    16.0411    14.3298    13.5550 du    1 LIG  0.000000
    22 DU38    16.0045    13.5143    12.8224 du    1 LIG  0.000000
    23 DU39    17.0906    14.5755    13.7586 du    1 LIG  0.000000
    24 DU40    15.3799    13.9828    14.8831 du    1 LIG  0.000000
    25 DU41    14.5826    13.2564    14.6836 du    1 LIG  0.000000
    26 DU42    16.0958    13.5270    15.5780 du    1 LIG  0.000000
    27 H15     18.8753    15.8556    19.5876 ha    1 LIG  0.154931
    28 C16     19.7690    15.1501    17.1625 c3    1 LIG -0.010569
    29 H14     17.7105    14.9199    15.6400 hn    1 LIG  0.298631
    30 H17     20.1043    14.3017    17.7717 hc    1 LIG  0.069631
    31 C18     19.9115    14.8057    15.6782 c3    1 LIG -0.080969
    32 H19     20.8124    14.1926    15.5421 hc    1 LIG  0.050631
    33 H20     19.0806    14.2344    15.2560 hc    1 LIG  0.050631
    34 C21     20.1222    16.1377    14.9607 c3    1 LIG -0.082969
    35 H22     20.8605    16.0342    14.1576 hc    1 LIG  0.041631
    36 H23     19.1903    16.4882    14.5044 hc    1 LIG  0.041631
    37 C24     20.5908    17.1269    16.0246 c3    1 LIG -0.082969
    38 H25     21.5291    17.6161    15.7434 hc    1 LIG  0.041631
    39 H26     19.8386    17.9134    16.1578 hc    1 LIG  0.041631
    40 C27     20.7487    16.3192    17.3084 c3    1 LIG -0.080969
    41 H28     21.7733    15.9307    17.3630 hc    1 LIG  0.050631
    42 H29     20.5854    16.9360    18.1975 hc    1 LIG  0.050631
@<TRIPOS>BOND
     0      1      2 1
     1      2      3 1
     2      2     10 1
     3      3      4 1
     4      3      5 1
     5      5      6 1
     6      5      7 1
     7      7      8 1
     8      7     13 1
     9      8      9 1
    10      8     10 1
    11      9     29 1
    12      9     12 1
    13     10     11 1
    14     11     27 1
    15     11     12 1
    16     12     28 1
    17     13     24 1
    18     13     14 1
    19     13     15 1
    20     15     18 1
    21     15     16 1
    22     15     17 1
    23     18     19 1
    24     18     20 1
    25     18     21 1
    26     21     22 1
    27     21     23 1
    28     21     24 1
    29     24     25 1
    30     24     26 1
    31     28     40 1
    32     28     30 1
    33     28     31 1
    34     31     32 1
    35     31     33 1
    36     31     34 1
    37     34     35 1
    38     34     36 1
    39     34     37 1
    40     37     38 1
    41     37     39 1
    42     37     40 1
    43     40     41 1
    44     40     42 1
@<TRIPOS>SUBSTRUCTURE
  1 LIG 1 TEMP
