@<TRIPOS>MOLECULE
LIG
8 7 1 0 0
SMALL
USER_CHARGES
****
generated by FESetup
@<TRIPOS>ATOM
     1 C1      13.5821    14.4458    12.8443 c3    1 LIG  0.116700
     2 O2      14.2884    13.4454    12.1142 oh    1 LIG -0.598800
     3 H3      12.5021    14.5066    12.6627 h1    1 LIG  0.028700
     4 H4      14.0079    15.4321    12.6227 h1    1 LIG  0.028700
     5 H5      13.6570    14.2927    13.9279 h1    1 LIG  0.028700
     6 H6      15.1995    13.7868    12.1031 ho    1 LIG  0.396000
     7 DU7     13.8740    13.3402    11.1079 du    1 LIG  0.000000
     8 DU8     14.2158    12.4787    12.6204 du    1 LIG  0.000000
@<TRIPOS>BOND
     0      1      2 1
     1      1      3 1
     2      1      4 1
     3      1      5 1
     4      2      6 1
     5      2      7 1
     6      2      8 1
@<TRIPOS>SUBSTRUCTURE
  1 LIG 1 TEMP
