@<TRIPOS>MOLECULE
INT
12 12 1 0 0
SMALL
USER_CHARGES
****
generated by FESetup
@<TRIPOS>ATOM
     1 C1      14.1797    16.5841    13.5457 c3    1 INT -0.108400
     2 C2      15.5439    16.2037    13.8792 cc    1 INT  0.027100
     3 H7      13.5184    16.0399    14.2311 hc    1 INT  0.027100
     4 H8      13.9664    16.4459    12.4787 hc    1 INT  0.027100
     5 H9      14.1560    17.6341    13.8625 hc    1 INT  0.027100
     6 H12     15.2910    14.8265    15.6454 ha    1 INT  0.000000
     7 H11     18.0433    15.1795    15.6481 ha    1 INT  0.000000
     8 H10     18.5414    16.5498    13.3449 h4    1 INT  0.000000
     9 C6      15.8921    15.3633    14.9209 cd    1 INT  0.000000
    10 C5      17.3069    15.5444    14.9417 cd    1 INT  0.000000
    11 C4      17.6244    16.3048    13.8638 cc    1 INT  0.000000
    12 O3      16.5388    16.7210    13.1594 os    1 INT  0.000000
@<TRIPOS>BOND
     0      1      2 1
     1      1      3 1
     2      1      4 1
     3      1      5 1
     4      2      9 1
     5      2     12 1
     6      6      9 1
     7      7     10 1
     8      8     11 1
     9      9     10 1
    10     10     11 1
    11     11     12 1
@<TRIPOS>SUBSTRUCTURE
  1 INT 1 TEMP
