@<TRIPOS>MOLECULE
LIG
   29    31     1     0     0
SMALL
No Charge or Current Charge


@<TRIPOS>ATOM
      1 H1           1.2160    -0.4430     2.4390 ha         1 LIG       0.132862
      2 C2           0.6690    -0.3640     1.5050 ca         1 LIG      -0.083138
      3 C3          -0.7160    -0.4550     1.4930 ca         1 LIG      -0.159138
      4 H4          -1.2570    -0.6010     2.4240 ha         1 LIG       0.127862
      5 C5          -1.4140    -0.3550     0.2910 ca         1 LIG      -0.112138
      6 H6          -2.4990    -0.3990     0.3590 ha         1 LIG       0.127862
      7 C7          -0.7870    -0.1950    -0.9740 ca         1 LIG      -0.088438
      8 C8           0.6210    -0.0230    -0.9010 ca         1 LIG      -0.041338
      9 N9           1.5630     0.2850    -1.8640 na         1 LIG      -0.192538
     10 C10          1.3460    -0.1230     0.2980 ca         1 LIG      -0.095938
     11 C11          2.7250     0.0640     0.0020 cc         1 LIG      -0.190338
     12 C12          2.8270     0.3150    -1.3410 cd         1 LIG      -0.111238
     13 C13         -1.6810    -0.1240    -2.2200 c3         1 LIG      -0.016538
     14 H14         -2.1020     0.8890    -2.2470 hc         1 LIG       0.055562
     15 C15         -1.0630    -0.4680    -3.5840 c3         1 LIG      -0.081538
     16 H16         -1.7480    -0.1340    -4.3760 hc         1 LIG       0.049562
     17 H17         -0.1100    -0.0060    -3.8190 hc         1 LIG       0.049562
     18 C18         -1.0010    -1.9910    -3.6150 c3         1 LIG      -0.084538
     19 H19         -1.0690    -2.3750    -4.6380 hc         1 LIG       0.039562
     20 H20         -0.0580    -2.3500    -3.1880 hc         1 LIG       0.039562
     21 C21         -2.1740    -2.4530    -2.7550 c3         1 LIG      -0.084538
     22 H22         -2.8900    -3.0510    -3.3270 hc         1 LIG       0.039562
     23 H23         -1.8110    -3.0720    -1.9260 hc         1 LIG       0.039562
     24 C24         -2.8210    -1.1710    -2.2290 c3         1 LIG      -0.081538
     25 H25         -3.5950    -0.8490    -2.9390 hc         1 LIG       0.049562
     26 H26         -3.3310    -1.3430    -1.2800 hc         1 LIG       0.049562
     27 H27          3.5460     0.0370     0.7060 ha         1 LIG       0.154862
     28 H28          3.6830     0.5290    -1.9670 h4         1 LIG       0.162862
     29 H29          1.3640     0.4920    -2.8270 hn         1 LIG       0.304562
@<TRIPOS>BOND
     1     1     2 1   
     2     2     3 ar  
     3     2    10 ar  
     4     3     4 1   
     5     3     5 ar  
     6     5     6 1   
     7     5     7 ar  
     8     7     8 ar  
     9     8     9 1   
    10     8    10 ar  
    11    10    11 1   
    12    11    12 2   
    13     9    12 1   
    14    13    14 1   
    15    13    15 1   
    16    13    24 1   
    17    15    16 1   
    18    15    17 1   
    19    15    18 1   
    20    18    19 1   
    21    18    20 1   
    22    18    21 1   
    23    21    22 1   
    24    21    23 1   
    25    21    24 1   
    26    24    25 1   
    27    24    26 1   
    28     7    13 1   
    29    11    27 1   
    30    12    28 1   
    31     9    29 1   
@<TRIPOS>SUBSTRUCTURE
     1 LIG         1 TEMP              0 ****  ****    0 ROOT
