@<TRIPOS>MOLECULE
LIG
   29    31     1     0     1 
SMALL
USER_CHARGES
@<TRIPOS>ATOM
  1 H1      1.216000   -0.443000    2.439000 ha    1 LIG     0.1329 ****
  2 C2      0.669000   -0.364000    1.505000 ca    1 LIG    -0.0831 ****
  3 C3     -0.716000   -0.455000    1.493000 ca    1 LIG    -0.1591 ****
  4 H4     -1.257000   -0.601000    2.424000 ha    1 LIG     0.1279 ****
  5 C5     -1.414000   -0.355000    0.291000 ca    1 LIG    -0.1121 ****
  6 H6     -2.499000   -0.399000    0.359000 ha    1 LIG     0.1279 ****
  7 C7     -0.787000   -0.195000   -0.974000 ca    1 LIG    -0.0884 ****
  8 C8      0.621000   -0.023000   -0.901000 ca    1 LIG    -0.0413 ****
  9 N9      1.563000    0.285000   -1.864000 na    1 LIG    -0.1925 ****
 10 C10     1.346000   -0.123000    0.298000 ca    1 LIG    -0.0959 ****
 11 C11     2.725000    0.064000    0.002000 cc    1 LIG    -0.1903 ****
 12 C12     2.827000    0.315000   -1.341000 cd    1 LIG    -0.1112 ****
 13 C13    -1.681000   -0.124000   -2.220000 c3    1 LIG    -0.0165 ****
 14 H14    -2.102000    0.889000   -2.247000 hc    1 LIG     0.0556 ****
 15 C15    -1.063000   -0.468000   -3.584000 c3    1 LIG    -0.0815 ****
 16 H16    -1.748000   -0.134000   -4.376000 hc    1 LIG     0.0496 ****
 17 H17    -0.110000   -0.006000   -3.819000 hc    1 LIG     0.0496 ****
 18 C18    -1.001000   -1.991000   -3.615000 c3    1 LIG    -0.0845 ****
 19 H19    -1.069000   -2.375000   -4.638000 hc    1 LIG     0.0396 ****
 20 H20    -0.058000   -2.350000   -3.188000 hc    1 LIG     0.0396 ****
 21 C21    -2.174000   -2.453000   -2.755000 c3    1 LIG    -0.0845 ****
 22 H22    -2.890000   -3.051000   -3.327000 hc    1 LIG     0.0396 ****
 23 H23    -1.811000   -3.072000   -1.926000 hc    1 LIG     0.0396 ****
 24 C24    -2.821000   -1.171000   -2.229000 c3    1 LIG    -0.0815 ****
 25 H25    -3.595000   -0.849000   -2.939000 hc    1 LIG     0.0496 ****
 26 H26    -3.331000   -1.343000   -1.280000 hc    1 LIG     0.0496 ****
 27 H27     3.546000    0.037000    0.706000 ha    1 LIG     0.1549 ****
 28 H28     3.683000    0.529000   -1.967000 h4    1 LIG     0.1629 ****
 29 H29     1.364000    0.492000   -2.827000 hn    1 LIG     0.3046 ****
@<TRIPOS>BOND
    1     1     2 1
    2     2     3 1
    3     2    10 1
    4     3     4 1
    5     3     5 1
    6     5     6 1
    7     5     7 1
    8     7     8 1
    9     7    13 1
   10     8     9 1
   11     8    10 1
   12     9    12 1
   13     9    29 1
   14    10    11 1
   15    11    12 1
   16    11    27 1
   17    12    28 1
   18    13    14 1
   19    13    15 1
   20    13    24 1
   21    15    16 1
   22    15    17 1
   23    15    18 1
   24    18    19 1
   25    18    20 1
   26    18    21 1
   27    21    22 1
   28    21    23 1
   29    21    24 1
   30    24    25 1
   31    24    26 1
@<TRIPOS>SUBSTRUCTURE
      1  LIG              1 ****               0 ****  **** 
