@<TRIPOS>MOLECULE
L1
5 4 1 0 0
SMALL
USER_CHARGES
****
generated by FESetup
@<TRIPOS>ATOM
     1 C1      13.9326    13.9489    13.9728 c3    1 L1 -0.108400
     2 H2      15.4496    13.8199    13.8635 hc    1 L1  0.027100
     3 H3      13.4243    13.7105    13.0304 hc    1 L1  0.027100
     4 H4      13.6407    14.9415    14.3369 hc    1 L1  0.027100
     5 H5      13.5090    13.3183    14.7640 hc    1 L1  0.027100
@<TRIPOS>BOND
     0      1      2 1
     1      1      3 1
     2      1      4 1
     3      1      5 1
@<TRIPOS>SUBSTRUCTURE
  1 L1 1 TEMP
