@<TRIPOS>MOLECULE
LIG
6 5 1 0 0
SMALL
USER_CHARGES
****
generated by FESetup
@<TRIPOS>ATOM
     1 C1       1.0920     0.0290    -0.0040 c3    1 LIG -0.108400
     2 H2       2.1850     0.0270    -0.0190 zz    1 LIG  0.027100
     3 H3       0.7200    -0.8570    -0.5230 hc    1 LIG  0.027100
     4 H4       0.7230     0.9260    -0.5050 hc    1 LIG  0.027100
     5 H5       0.7430     0.0190     1.0300 hc    1 LIG  0.027100
     6 DU6      2.4571     0.0428    -0.9526 du    1 LIG  0.000000
@<TRIPOS>BOND
     0      1      2 1
     1      1      3 1
     2      1      4 1
     3      1      5 1
     4      2      6 1
@<TRIPOS>SUBSTRUCTURE
  1 LIG 1 TEMP
