@<TRIPOS>MOLECULE
LIG
19 20 1 0 0
SMALL
USER_CHARGES
****
generated by FESetup
@<TRIPOS>ATOM
     1 C1      13.7268    13.7209    14.2202 c3    1 LIG -0.108400
     2 H2      13.4436    12.7928    13.7085 zz    1 LIG  0.027100
     3 H3      13.4122    14.5815    13.6172 hc    1 LIG  0.027100
     4 H4      14.8070    13.7653    14.4052 hc    1 LIG  0.027100
     5 H5      13.1706    13.8146    15.1609 hc    1 LIG  0.027100
     6 DU6     13.6924    11.5590    14.2593 du    1 LIG  0.000000
     7 DU7     13.2231    10.5595    13.4363 du    1 LIG  0.000000
     8 DU8     13.2463     9.1707    13.5983 du    1 LIG  0.000000
     9 DU9     12.6811     8.3917    12.5836 du    1 LIG  0.000000
    10 DU10    12.1208     8.9819    11.4531 du    1 LIG  0.000000
    11 DU11    12.1093    10.3738    11.3057 du    1 LIG  0.000000
    12 DU12    12.6698    11.1779    12.3170 du    1 LIG  0.000000
    13 DU13    12.8186    12.5813    12.4975 du    1 LIG  0.000000
    14 DU14    14.1454    11.3987    15.1482 du    1 LIG  0.000000
    15 DU15    13.6820     8.7070    14.4779 du    1 LIG  0.000000
    16 DU16    12.6783     7.3079    12.6797 du    1 LIG  0.000000
    17 DU17    11.6851     8.3576    10.6771 du    1 LIG  0.000000
    18 DU18    11.6699    10.8281    10.4226 du    1 LIG  0.000000
    19 DU19    12.4916    13.3529    11.8123 du    1 LIG  0.000000
@<TRIPOS>BOND
     0      1      2 1
     1      1      3 1
     2      1      4 1
     3      1      5 1
     4      2      6 1
     5      2     13 1
     6      6      7 1
     7      6     14 1
     8      7      8 1
     9      7     12 1
    10      8      9 1
    11      8     15 1
    12      9     10 1
    13      9     16 1
    14     10     11 1
    15     10     17 1
    16     11     18 1
    17     11     12 1
    18     12     13 1
    19     13     19 1
@<TRIPOS>SUBSTRUCTURE
  1 LIG 1 TEMP
