@<TRIPOS>MOLECULE
LIG
29 31 1 0 0
SMALL
USER_CHARGES
****
generated by FESetup
@<TRIPOS>ATOM
     1 H1      17.3413    12.7305    19.6963 ha    1 LIG  0.131931
     2 C2      16.7533    12.7434    18.7833 ca    1 LIG -0.083069
     3 C3      15.3496    12.6652    18.9029 ca    1 LIG -0.160069
     4 H4      14.8187    12.7083    19.8493 ha    1 LIG  0.127931
     5 C5      14.5665    12.6980    17.6606 ca    1 LIG -0.114069
     6 H6      13.4858    12.6336    17.7468 ha    1 LIG  0.126931
     7 C7      15.1583    12.9411    16.4004 ca    1 LIG -0.147069
     8 H8      14.5069    13.1402    15.5545 ha    1 LIG  0.129931
     9 C9      16.4953    13.1711    16.3830 ca    1 LIG -0.044269
    10 N10     17.2623    13.4972    15.3264 na    1 LIG -0.187469
    11 C11     17.2350    13.0171    17.4955 ca    1 LIG -0.093869
    12 C12     18.6003    13.3886    17.1954 cc    1 LIG -0.187269
    13 C13     18.5315    13.6877    15.8450 cd    1 LIG -0.053369
    14 H14     17.0558    13.7106    14.3610 hn    1 LIG  0.298631
    15 H15     19.5413    13.5069    17.7197 ha    1 LIG  0.154931
    16 C16     19.8144    14.2681    15.1455 c3    1 LIG -0.010569
    17 H29     19.3497    16.0870    16.3503 hc    1 LIG  0.050631
    18 H28     21.0889    15.8420    16.0235 hc    1 LIG  0.050631
    19 C27     20.0800    15.7561    15.6017 c3    1 LIG -0.080969
    20 H26     19.4550    17.5780    14.5478 hc    1 LIG  0.041631
    21 H25     20.9441    16.7788    14.0356 hc    1 LIG  0.041631
    22 C24     19.9129    16.5985    14.3630 c3    1 LIG -0.082969
    23 H23     18.1462    15.8525    13.2986 hc    1 LIG  0.041631
    24 H22     19.5960    16.0055    12.2811 hc    1 LIG  0.041631
    25 C21     19.2402    15.7736    13.2924 c3    1 LIG -0.082969
    26 H20     18.9238    13.6157    13.2123 hc    1 LIG  0.050631
    27 H19     20.5877    14.1343    13.0994 hc    1 LIG  0.050631
    28 C18     19.6457    14.3303    13.6262 c3    1 LIG -0.080969
    29 H17     20.6819    13.6427    15.3898 hc    1 LIG  0.069631
@<TRIPOS>BOND
     0      1      2 1
     1      2      3 1
     2      2     11 1
     3      3      4 1
     4      3      5 1
     5      5      6 1
     6      5      7 1
     7      7      8 1
     8      7      9 1
     9      9     10 1
    10      9     11 1
    11     10     13 1
    12     10     14 1
    13     11     12 1
    14     12     13 1
    15     12     15 1
    16     13     16 1
    17     16     19 1
    18     16     28 1
    19     16     29 1
    20     17     19 1
    21     18     19 1
    22     19     22 1
    23     20     22 1
    24     21     22 1
    25     22     25 1
    26     23     25 1
    27     24     25 1
    28     25     28 1
    29     26     28 1
    30     27     28 1
@<TRIPOS>SUBSTRUCTURE
  1 LIG 1 TEMP
