@<TRIPOS>MOLECULE
LIG
29 31 1 0 0
SMALL
USER_CHARGES
****
generated by FESetup
@<TRIPOS>ATOM
     1 H1      17.3413    12.7305    19.6963 ha    1 LIG  0.132862
     2 C2      16.7533    12.7434    18.7833 ca    1 LIG -0.083138
     3 C3      15.3496    12.6652    18.9029 ca    1 LIG -0.159138
     4 H4      14.8187    12.7083    19.8493 ha    1 LIG  0.127862
     5 C5      14.5665    12.6980    17.6606 ca    1 LIG -0.112138
     6 H6      13.4858    12.6336    17.7468 ha    1 LIG  0.127862
     7 C7      15.1583    12.9411    16.4004 ca    1 LIG -0.088438
     8 C13     14.5069    13.1402    15.5545 c3    1 LIG -0.016538
     9 C8      16.4953    13.1711    16.3830 ca    1 LIG -0.041338
    10 N9      17.2623    13.4972    15.3264 na    1 LIG -0.192538
    11 C10     17.2350    13.0171    17.4955 ca    1 LIG -0.095938
    12 C11     18.6003    13.3886    17.1954 cc    1 LIG -0.190338
    13 C12     18.5315    13.6877    15.8450 cd    1 LIG -0.111238
    14 H29     17.0558    13.7106    14.3610 hn    1 LIG  0.304562
    15 H27     19.5413    13.5069    17.7197 ha    1 LIG  0.154862
    16 H28     19.8144    14.2681    15.1455 h4    1 LIG  0.162862
    17 H14     14.1759    14.1819    15.6515 hc    1 LIG  0.055562
    18 C15     15.0516    12.8962    14.1387 c3    1 LIG -0.081538
    19 H16     14.3755    13.3710    13.4139 hc    1 LIG  0.049562
    20 H17     16.0342    13.2992    13.9172 hc    1 LIG  0.049562
    21 C18     14.9786    11.3859    13.9439 c3    1 LIG -0.084538
    22 H19     14.8469    11.1228    12.8894 hc    1 LIG  0.039562
    23 H20     15.8987    10.9044    14.2934 hc    1 LIG  0.039562
    24 C21     13.7956    10.9332    14.7950 c3    1 LIG -0.084538
    25 H22     13.0132    10.4636    14.1911 hc    1 LIG  0.039562
    26 H23     14.1271    10.1992    15.5389 hc    1 LIG  0.039562
    27 C24     13.2795    12.2001    15.4788 c3    1 LIG -0.081538
    28 H25     12.5162    12.6616    14.8376 hc    1 LIG  0.049562
    29 H26     12.7847    11.9692    16.4233 hc    1 LIG  0.049562
@<TRIPOS>BOND
     0      1      2 1
     1      2      3 1
     2      2     11 1
     3      3      4 1
     4      3      5 1
     5      5      6 1
     6      5      7 1
     7      7      8 1
     8      7      9 1
     9      8     18 1
    10      8     27 1
    11      8     17 1
    12      9     10 1
    13      9     11 1
    14     10     13 1
    15     10     14 1
    16     11     12 1
    17     12     13 1
    18     12     15 1
    19     13     16 1
    20     18     19 1
    21     18     20 1
    22     18     21 1
    23     21     22 1
    24     21     23 1
    25     21     24 1
    26     24     25 1
    27     24     26 1
    28     24     27 1
    29     27     28 1
    30     27     29 1
@<TRIPOS>SUBSTRUCTURE
  1 LIG 1 TEMP
