@<TRIPOS>MOLECULE
INT
17 16 1 0 0
SMALL
USER_CHARGES
****
generated by FESetup
@<TRIPOS>ATOM
     1 C1      14.5315    14.0264    15.4613 c3    1 INT -0.108400
     2 C2      14.1816    15.3824    14.7245 c3    1 INT  0.027100
     3 C3      13.9796    12.7887    14.6789 c3    1 INT  0.027100
     4 C4      13.9400    14.2291    16.9094 c3    1 INT  0.027100
     5 C5      16.0598    13.9131    15.5507 c3    1 INT  0.027100
     6 H17     16.5274    14.0309    14.5654 hc    1 INT  0.000000
     7 H16     16.4185    14.7314    16.1870 hc    1 INT  0.000000
     8 H15     16.4001    12.9223    15.8756 hc    1 INT  0.000000
     9 H14     14.5028    15.0583    17.3553 hc    1 INT  0.000000
    10 H13     12.8926    14.5543    16.8904 hc    1 INT  0.000000
    11 H12     13.9774    13.3554    17.5715 hc    1 INT  0.000000
    12 H11     12.8842    12.7344    14.6606 hc    1 INT  0.000000
    13 H10     14.3856    12.7346    13.6613 hc    1 INT  0.000000
    14 H9      14.3174    11.9074    15.2379 hc    1 INT  0.000000
    15 H8      14.7816    15.4658    13.8101 hc    1 INT  0.000000
    16 H7      13.1290    15.3802    14.4158 hc    1 INT  0.000000
    17 H6      14.4739    16.2019    15.3924 hc    1 INT  0.000000
@<TRIPOS>BOND
     0      1      2 1
     1      1      3 1
     2      1      4 1
     3      1      5 1
     4      2     15 1
     5      2     16 1
     6      2     17 1
     7      3     12 1
     8      3     13 1
     9      3     14 1
    10      4      9 1
    11      4     10 1
    12      4     11 1
    13      5      6 1
    14      5      7 1
    15      5      8 1
@<TRIPOS>SUBSTRUCTURE
  1 INT 1 TEMP
