@<TRIPOS>MOLECULE
LIG
12 12 1 0 0
SMALL
USER_CHARGES
****
generated by FESetup
@<TRIPOS>ATOM
     1 C1       1.0920     0.0290    -0.0040 c3    1 LIG -0.108400
     2 H2       2.1850     0.0270    -0.0190 zz    1 LIG  0.027100
     3 H3       0.7200    -0.8570    -0.5230 hc    1 LIG  0.027100
     4 H4       0.7230     0.9260    -0.5050 hc    1 LIG  0.027100
     5 H5       0.7430     0.0190     1.0300 hc    1 LIG  0.027100
     6 DU6      2.7865    -1.0335    -0.6257 du    1 LIG  0.000000
     7 DU7      4.1268    -0.8365    -0.5301 du    1 LIG  0.000000
     8 DU8      4.3945     0.3388     0.1311 du    1 LIG  0.000000
     9 DU9      3.1383     0.8986     0.4635 du    1 LIG  0.000000
    10 DU10     4.7433    -1.6060    -0.9730 du    1 LIG  0.000000
    11 DU11     5.3748     0.7396     0.3466 du    1 LIG  0.000000
    12 DU12     2.9477     1.8242     0.9890 du    1 LIG  0.000000
@<TRIPOS>BOND
     0      1      2 1
     1      1      3 1
     2      1      4 1
     3      1      5 1
     4      2      6 1
     5      2      9 1
     6      6      7 1
     7      7      8 1
     8      7     10 1
     9      8      9 1
    10      8     11 1
    11      9     12 1
@<TRIPOS>SUBSTRUCTURE
  1 LIG 1 TEMP
