@<TRIPOS>MOLECULE
LIG
 5 4 0 0 0
SMALL
USER_CHARGES
****
generated by FESetup
@<TRIPOS>ATOM
      1 C1          0.8960    0.0090    0.0010 C.3     1  LIG1       -0.0127
      2 C2          0.4570    0.9980   -1.0890 C.3     1  LIG1       -0.0580
      3 H6          0.8110    2.0110   -0.8700 H       1  LIG1        0.0236
      4 H7         -0.6350    1.0370   -1.1710 H       1  LIG1        0.0236
      5 H8          0.8550    0.7090   -2.0680 H       1  LIG1        0.0236
@<TRIPOS>BOND
     1     1     2    1
     2     2     3    1
     3     2     4    1
     4     2     5    1
