@<TRIPOS>MOLECULE
L0
17 16 1 0 0
SMALL
USER_CHARGES
****
generated by FESetup
@<TRIPOS>ATOM
     1 C1      14.5310    14.0256    15.4614 c3    1 L0 -0.060235
     2 C2      14.1803    15.3821    14.7261 c3    1 L0 -0.085335
     3 H6      14.4727    16.2011    15.3947 hc    1 L0  0.033465
     4 H7      13.1275    15.3799    14.4182 hc    1 L0  0.033465
     5 H8      14.7798    15.4666    13.8115 hc    1 L0  0.033465
     6 H17     16.5272    14.0324    14.5660 hc    1 L0  0.033465
     7 H16     16.4173    14.7312    16.1883 hc    1 L0  0.033465
     8 H15     16.4002    12.9224    15.8751 hc    1 L0  0.033465
     9 H14     14.5002    15.0565    17.3557 hc    1 L0  0.033465
    10 H13     12.8908    14.5484    16.8914 hc    1 L0  0.033465
    11 H12     13.9795    13.3522    17.5713 hc    1 L0  0.033465
    12 H11     12.8847    12.7337    14.6590 hc    1 L0  0.033465
    13 H10     14.3867    12.7351    13.6604 hc    1 L0  0.033465
    14 H9      14.3180    11.9068    15.2365 hc    1 L0  0.033465
    15 C5      16.0594    13.9134    15.5510 c3    1 L0 -0.085335
    16 C4      13.9392    14.2261    16.9097 c3    1 L0 -0.085335
    17 C3      13.9801    12.7882    14.6778 c3    1 L0 -0.085335
@<TRIPOS>BOND
     0      1      2 1
     1      1     15 1
     2      1     16 1
     3      1     17 1
     4      2      3 1
     5      2      4 1
     6      2      5 1
     7      6     15 1
     8      7     15 1
     9      8     15 1
    10      9     16 1
    11     10     16 1
    12     11     16 1
    13     12     17 1
    14     13     17 1
    15     14     17 1
@<TRIPOS>SUBSTRUCTURE
  1 L0 1 TEMP
