@<TRIPOS>MOLECULE
L1
5 4 1 0 0
SMALL
USER_CHARGES
****
generated by FESetup
@<TRIPOS>ATOM
     1 C1      14.1797    16.5841    13.5457 c3    1 L1 -0.108400
     2 H2      15.5439    16.2037    13.8792 hc    1 L1  0.027100
     3 H3      13.5184    16.0399    14.2311 hc    1 L1  0.027100
     4 H4      13.9664    16.4459    12.4787 hc    1 L1  0.027100
     5 H5      14.1560    17.6341    13.8625 hc    1 L1  0.027100
@<TRIPOS>BOND
     0      1      2 1
     1      1      3 1
     2      1      4 1
     3      1      5 1
@<TRIPOS>SUBSTRUCTURE
  1 L1 1 TEMP
