@<TRIPOS>MOLECULE
LIG
17 16 1 0 0
SMALL
USER_CHARGES
****
generated by FESetup
@<TRIPOS>ATOM
     1 H2      14.5310    14.0256    15.4614 hc    1 LIG  0.027100
     2 C1      14.1803    15.3821    14.7261 c3    1 LIG -0.108400
     3 DU6     13.9801    12.7882    14.6778 du    1 LIG  0.000000
     4 DU7     13.9392    14.2261    16.9097 du    1 LIG  0.000000
     5 DU8     16.0594    13.9134    15.5510 du    1 LIG  0.000000
     6 H3      14.4727    16.2011    15.3947 hc    1 LIG  0.027100
     7 H4      13.1275    15.3799    14.4182 hc    1 LIG  0.027100
     8 H5      14.7798    15.4666    13.8115 hc    1 LIG  0.027100
     9 DU9     14.3180    11.9068    15.2365 du    1 LIG  0.000000
    10 DU10    14.3867    12.7351    13.6604 du    1 LIG  0.000000
    11 DU11    12.8847    12.7337    14.6590 du    1 LIG  0.000000
    12 DU12    13.9795    13.3522    17.5713 du    1 LIG  0.000000
    13 DU13    12.8908    14.5484    16.8914 du    1 LIG  0.000000
    14 DU14    14.5002    15.0565    17.3557 du    1 LIG  0.000000
    15 DU15    16.4002    12.9224    15.8751 du    1 LIG  0.000000
    16 DU16    16.4173    14.7312    16.1883 du    1 LIG  0.000000
    17 DU17    16.5272    14.0324    14.5660 du    1 LIG  0.000000
@<TRIPOS>BOND
     0      1      2 1
     1      1      3 1
     2      1      4 1
     3      1      5 1
     4      2      6 1
     5      2      7 1
     6      2      8 1
     7      3      9 1
     8      3     10 1
     9      3     11 1
    10      4     12 1
    11      4     13 1
    12      4     14 1
    13      5     15 1
    14      5     16 1
    15      5     17 1
@<TRIPOS>SUBSTRUCTURE
  1 LIG 1 TEMP
