@<TRIPOS>MOLECULE
LIG
17 16 1 0 0
SMALL
USER_CHARGES
****
generated by FESetup
@<TRIPOS>ATOM
     1 C1      13.7268    13.7209    14.2202 c3    1 LIG -0.108400
     2 H2      13.4436    12.7928    13.7085 zz    1 LIG  0.027100
     3 H3      13.4122    14.5815    13.6172 zz    1 LIG  0.027100
     4 H4      14.8070    13.7653    14.4052 zz    1 LIG  0.027100
     5 H5      13.1706    13.8146    15.1609 zz    1 LIG  0.027100
     6 DU6     13.7472    11.9136    14.2867 du    1 LIG  0.000000
     7 DU7     13.9181    12.7238    12.7232 du    1 LIG  0.000000
     8 DU8     12.3593    12.7381    13.5612 du    1 LIG  0.000000
     9 DU9     13.6812    15.5253    14.1039 du    1 LIG  0.000000
    10 DU10    12.3271    14.5817    13.4657 du    1 LIG  0.000000
    11 DU11    13.8866    14.5681    12.6304 du    1 LIG  0.000000
    12 DU12    15.0832    14.6952    14.9143 du    1 LIG  0.000000
    13 DU13    15.3706    13.7188    13.4667 du    1 LIG  0.000000
    14 DU14    15.1358    12.9303    15.0331 du    1 LIG  0.000000
    15 DU15    13.4387    14.7359    15.6894 du    1 LIG  0.000000
    16 DU16    13.3798    12.9723    15.8306 du    1 LIG  0.000000
    17 DU17    12.0898    13.8362    14.9809 du    1 LIG  0.000000
@<TRIPOS>BOND
     0      1      2 1
     1      1      3 1
     2      1      4 1
     3      1      5 1
     4      2      6 1
     5      2      7 1
     6      2      8 1
     7      3      9 1
     8      3     10 1
     9      3     11 1
    10      4     12 1
    11      4     13 1
    12      4     14 1
    13      5     15 1
    14      5     16 1
    15      5     17 1
@<TRIPOS>SUBSTRUCTURE
  1 LIG 1 TEMP
