@<TRIPOS>MOLECULE
LIG
    6     5     1     0     1 
SMALL
USER_CHARGES
@<TRIPOS>ATOM
  1 C1      0.997000   -0.083000    0.056000 c3    1 LIG     0.1167 ****
  2 O2      2.413000   -0.092000    0.060000 oh    1 LIG    -0.5988 ****
  3 H3      0.636000    0.313000   -0.896000 h1    1 LIG     0.0287 ****
  4 H4      0.634000    0.534000    0.882000 h1    1 LIG     0.0287 ****
  5 H5      0.636000   -1.107000    0.183000 h1    1 LIG     0.0287 ****
  6 H6      2.704000    0.829000   -0.054000 ho    1 LIG     0.3960 ****
@<TRIPOS>BOND
    1     1     2 1
    2     1     3 1
    3     1     4 1
    4     1     5 1
    5     2     6 1
@<TRIPOS>SUBSTRUCTURE
      1  LIG              1 ****               0 ****  **** 
