@<TRIPOS>MOLECULE
LIG
8 7 1 0 0
SMALL
USER_CHARGES
****
generated by FESetup
@<TRIPOS>ATOM
     1 C1       1.0020    -0.0780     0.0400 c3    1 LIG -0.094350
     2 C2       2.5140    -0.0890     0.0350 c3    1 LIG -0.094350
     3 H3       0.6150    -0.8040     0.7620 hc    1 LIG  0.031450
     4 H4       0.6110    -0.3350    -0.9490 hc    1 LIG  0.031450
     5 H5       0.6250     0.9120     0.3130 hc    1 LIG  0.031450
     6 H6       2.8900    -1.0800    -0.2370 hc    1 LIG  0.031450
     7 H7       2.9030     0.1680     1.0240 hc    1 LIG  0.031450
     8 H8       2.9000     0.6360    -0.6870 hc    1 LIG  0.031450
@<TRIPOS>BOND
     0      1      2 1
     1      1      3 1
     2      1      4 1
     3      1      5 1
     4      2      6 1
     5      2      7 1
     6      2      8 1
@<TRIPOS>SUBSTRUCTURE
  1 LIG 1 TEMP
