@<TRIPOS>MOLECULE
LIG
19 20 1 0 0
SMALL
USER_CHARGES
****
generated by FESetup
@<TRIPOS>ATOM
     1 C1      13.0965    15.0235    15.1129 c3    1 LIG -0.043953
     2 C2      14.4318    14.8799    14.3865 cc    1 LIG -0.059353
     3 N3      15.1408    13.6783    14.0539 na    1 LIG -0.194453
     4 C4      16.1794    14.0608    13.2390 ca    1 LIG -0.042253
     5 C5      17.2138    13.2537    12.8724 ca    1 LIG -0.148053
     6 C6      18.3066    13.8308    12.1918 ca    1 LIG -0.113053
     7 C7      18.3602    15.2195    12.0293 ca    1 LIG -0.160053
     8 C8      17.2588    16.0077    12.4328 ca    1 LIG -0.083053
     9 C9      16.1956    15.4163    13.0587 ca    1 LIG -0.093853
    10 C10     15.1298    15.9291    13.8351 cd    1 LIG -0.185253
    11 H11     12.3477    15.2082    14.3330 hc    1 LIG  0.051314
    12 H12     13.0564    15.8427    15.8413 hc    1 LIG  0.051314
    13 H13     12.8255    14.1146    15.6640 hc    1 LIG  0.051314
    14 H14     15.0571    12.7211    14.3651 hn    1 LIG  0.295647
    15 H15     17.2585    12.1973    13.1202 ha    1 LIG  0.129947
    16 H16     19.0936    13.1759    11.8296 ha    1 LIG  0.127947
    17 H17     19.1729    15.7019    11.4943 ha    1 LIG  0.127947
    18 H18     17.2936    17.0904    12.3562 ha    1 LIG  0.132947
    19 H19     14.6970    16.9226    13.8387 ha    1 LIG  0.154947
@<TRIPOS>BOND
     0      1      2 1
     1      1     11 1
     2      1     12 1
     3      1     13 1
     4      2      3 1
     5      2     10 1
     6      3      4 1
     7      3     14 1
     8      4      5 1
     9      4      9 1
    10      5      6 1
    11      5     15 1
    12      6      7 1
    13      6     16 1
    14      7      8 1
    15      7     17 1
    16      8     18 1
    17      8      9 1
    18      9     10 1
    19     10     19 1
@<TRIPOS>SUBSTRUCTURE
  1 LIG 1 TEMP
