@<TRIPOS>MOLECULE
INT
19 20 1 0 0
SMALL
USER_CHARGES
****
generated by FESetup
@<TRIPOS>ATOM
     1 C1      13.0965    15.0235    15.1129 c3    1 INT -0.108400
     2 C2      14.4318    14.8799    14.3865 cc    1 INT  0.027100
     3 H11     12.3477    15.2082    14.3330 hc    1 INT  0.027100
     4 H12     13.0564    15.8427    15.8413 hc    1 INT  0.027100
     5 H13     12.8255    14.1146    15.6640 hc    1 INT  0.027100
     6 H19     14.6970    16.9226    13.8387 ha    1 INT  0.000000
     7 H18     17.2936    17.0904    12.3562 ha    1 INT  0.000000
     8 H17     19.1729    15.7019    11.4943 ha    1 INT  0.000000
     9 H16     19.0936    13.1759    11.8296 ha    1 INT  0.000000
    10 H15     17.2585    12.1973    13.1202 ha    1 INT  0.000000
    11 H14     15.0571    12.7211    14.3651 hn    1 INT  0.000000
    12 C10     15.1298    15.9291    13.8351 cd    1 INT  0.000000
    13 C9      16.1956    15.4163    13.0587 ca    1 INT  0.000000
    14 C8      17.2588    16.0077    12.4328 ca    1 INT  0.000000
    15 C7      18.3602    15.2195    12.0293 ca    1 INT  0.000000
    16 C6      18.3066    13.8308    12.1918 ca    1 INT  0.000000
    17 C5      17.2138    13.2537    12.8724 ca    1 INT  0.000000
    18 C4      16.1794    14.0608    13.2390 ca    1 INT  0.000000
    19 N3      15.1408    13.6783    14.0539 na    1 INT  0.000000
@<TRIPOS>BOND
     0      1      2 1
     1      1      3 1
     2      1      4 1
     3      1      5 1
     4      2     19 1
     5      2     12 1
     6      6     12 1
     7      7     14 1
     8      8     15 1
     9      9     16 1
    10     10     17 1
    11     11     19 1
    12     12     13 1
    13     13     18 1
    14     13     14 1
    15     14     15 1
    16     15     16 1
    17     16     17 1
    18     17     18 1
    19     18     19 1
@<TRIPOS>SUBSTRUCTURE
  1 INT 1 TEMP
