@<TRIPOS>MOLECULE
L1
5 4 1 0 0
SMALL
USER_CHARGES
****
generated by FESetup
@<TRIPOS>ATOM
     1 C1      13.0965    15.0235    15.1129 c3    1 L1 -0.108400
     2 H2      14.4318    14.8799    14.3865 hc    1 L1  0.027100
     3 H3      12.3477    15.2082    14.3330 hc    1 L1  0.027100
     4 H4      13.0564    15.8427    15.8413 hc    1 L1  0.027100
     5 H5      12.8255    14.1146    15.6640 hc    1 L1  0.027100
@<TRIPOS>BOND
     0      1      2 1
     1      1      3 1
     2      1      4 1
     3      1      5 1
@<TRIPOS>SUBSTRUCTURE
  1 L1 1 TEMP
