@<TRIPOS>MOLECULE
LIG
 16 17 0 0 0
SMALL
USER_CHARGES
****
generated by FESetup
@<TRIPOS>ATOM
      1 H1          1.1390   -0.3910    2.4490 H       1  LIG1        0.0313
      2 C2          0.5980   -0.2940    1.5130 C.3     1  LIG1       -0.0257
      3 C3         -0.7940   -0.4410    1.4850 C.3     1  LIG1       -0.0305
      4 H4         -1.3300   -0.6510    2.4070 H       1  LIG1        0.0309
      5 C5         -1.4950   -0.3260    0.2860 C.3     1  LIG1       -0.0293
      6 H6         -2.5760   -0.4480    0.2840 H       1  LIG1        0.0310
      7 C7         -0.8310   -0.0560   -0.9150 C.3     1  LIG1       -0.0122
      8 H8         -1.3810    0.0310   -1.8460 H       1  LIG1        0.0326
      9 C9          0.5610    0.0880   -0.8680 C.3     1  LIG1        0.0490
     10 N10         1.4660    0.3470   -1.8750 N.3     1  LIG1       -0.3001
     11 C11         1.2870   -0.0280    0.3150 C.3     1  LIG1        0.0072
     12 C12         2.6550    0.1520   -0.0200 C.3     1  LIG1       -0.0070
     13 C13         2.7520    0.3740   -1.3830 C.3     1  LIG1        0.0500
     14 H14         1.2020    0.4720   -2.8410 H       1  LIG1        0.1232
     15 H15         3.4890    0.1030    0.6670 H       1  LIG1        0.0329
     16 C16         3.9870    0.5480   -2.2270 C.3     1  LIG1        0.0168
@<TRIPOS>BOND
     1     1     2    1
     2     2     3    1
     3     2    11    1
     4     3     4    1
     5     3     5    1
     6     5     6    1
     7     5     7    1
     8     7     8    1
     9     7     9    1
    10     9    10    1
    11     9    11    1
    12    10    13    1
    13    10    14    1
    14    11    12    1
    15    12    13    1
    16    12    15    1
    17    13    16    1
