@<TRIPOS>MOLECULE
LIG
15 15 1 0 0
SMALL
USER_CHARGES
****
generated by FESetup
@<TRIPOS>ATOM
     1 C1      13.9326    13.9489    13.9728 c3    1 LIG -0.108400
     2 H2      15.4496    13.8199    13.8635 hc    1 LIG  0.027100
     3 DU6     16.3032    14.8550    14.2801 du    1 LIG  0.000000
     4 DU7     17.6727    14.7221    14.2772 du    1 LIG  0.000000
     5 DU8     18.2758    13.4956    13.8897 du    1 LIG  0.000000
     6 DU9     17.4531    12.3822    13.6556 du    1 LIG  0.000000
     7 DU10    16.0868    12.5779    13.5867 du    1 LIG  0.000000
     8 H3      13.4243    13.7105    13.0304 hc    1 LIG  0.027100
     9 H4      13.6407    14.9415    14.3369 hc    1 LIG  0.027100
    10 H5      13.5090    13.3183    14.7640 hc    1 LIG  0.027100
    11 DU11    15.8542    15.7886    14.6060 du    1 LIG  0.000000
    12 DU12    18.2793    15.6001    14.4784 du    1 LIG  0.000000
    13 DU13    19.3481    13.3253    13.8664 du    1 LIG  0.000000
    14 DU14    17.9102    11.4186    13.4507 du    1 LIG  0.000000
    15 DU15    15.4670    11.7070    13.3951 du    1 LIG  0.000000
@<TRIPOS>BOND
     0      1      2 1
     1      1      8 1
     2      1      9 1
     3      1     10 1
     4      2      3 1
     5      2      7 1
     6      3      4 1
     7      3     11 1
     8      4      5 1
     9      4     12 1
    10      5      6 1
    11      5     13 1
    12      6      7 1
    13      6     14 1
    14      7     15 1
@<TRIPOS>SUBSTRUCTURE
  1 LIG 1 TEMP
