@<TRIPOS>MOLECULE
LIG
17 16 1 0 0
SMALL
USER_CHARGES
****
generated by FESetup
@<TRIPOS>ATOM
     1 C1       0.8960     0.0090     0.0010 c3    1 LIG -0.060235
     2 C2       0.4570     0.9980    -1.0890 c3    1 LIG -0.085335
     3 C3       0.3780    -1.3950    -0.3420 c3    1 LIG -0.085335
     4 C4       0.3190     0.4500     1.3550 c3    1 LIG -0.085335
     5 C5       2.4290    -0.0160     0.0830 c3    1 LIG -0.085335
     6 H6       0.8110     2.0110    -0.8700 hc    1 LIG  0.033465
     7 H7      -0.6350     1.0370    -1.1710 hc    1 LIG  0.033465
     8 H8       0.8550     0.7090    -2.0680 hc    1 LIG  0.033465
     9 H9       0.6770    -2.1240     0.4190 hc    1 LIG  0.033465
    10 H10      0.7730    -1.7370    -1.3050 hc    1 LIG  0.033465
    11 H11     -0.7150    -1.4090    -0.4060 hc    1 LIG  0.033465
    12 H12      0.6140    -0.2390     2.1540 hc    1 LIG  0.033465
    13 H13     -0.7760     0.4790     1.3270 hc    1 LIG  0.033465
    14 H14      0.6720     1.4500     1.6290 hc    1 LIG  0.033465
    15 H15      2.7730    -0.7140     0.8540 hc    1 LIG  0.033465
    16 H16      2.8290     0.9750     0.3270 hc    1 LIG  0.033465
    17 H17      2.8710    -0.3280    -0.8700 hc    1 LIG  0.033465
@<TRIPOS>BOND
     0      1      2 1
     1      1      3 1
     2      1      4 1
     3      1      5 1
     4      2      6 1
     5      2      7 1
     6      2      8 1
     7      3      9 1
     8      3     10 1
     9      3     11 1
    10      4     12 1
    11      4     13 1
    12      4     14 1
    13      5     15 1
    14      5     16 1
    15      5     17 1
@<TRIPOS>SUBSTRUCTURE
  1 LIG 1 TEMP
