@<TRIPOS>MOLECULE
LIG
15 15 1 0 0
SMALL
USER_CHARGES
****
generated by FESetup
@<TRIPOS>ATOM
     1 C1       0.9260     0.0810     0.0170 c3    1 LIG -0.053800
     2 C2       2.4230     0.1100    -0.0690 ca    1 LIG -0.077300
     3 C3       3.1180     1.3250    -0.1220 ca    1 LIG -0.131000
     4 C4       4.5110     1.3380    -0.2110 ca    1 LIG -0.127000
     5 C5       5.2200     0.1390    -0.2530 ca    1 LIG -0.135000
     6 C6       4.5370    -1.0740    -0.2050 ca    1 LIG -0.127000
     7 C7       3.1450    -1.0890    -0.1150 ca    1 LIG -0.131000
     8 H8       0.5110     1.0870     0.1420 hc    1 LIG  0.044033
     9 H9       0.6080    -0.5180     0.8770 hc    1 LIG  0.044033
    10 H10      0.5060    -0.3490    -0.8970 hc    1 LIG  0.044033
    11 H11      2.5800     2.2690    -0.0930 ha    1 LIG  0.130000
    12 H12      5.0430     2.2850    -0.2500 ha    1 LIG  0.130000
    13 H13      6.3050     0.1510    -0.3230 ha    1 LIG  0.130000
    14 H14      5.0890    -2.0100    -0.2390 ha    1 LIG  0.130000
    15 H15      2.6230    -2.0430    -0.0810 ha    1 LIG  0.130000
@<TRIPOS>BOND
     0      1      2 1
     1      1      8 1
     2      1      9 1
     3      1     10 1
     4      2      3 1
     5      2      7 1
     6      3      4 1
     7      3     11 1
     8      4      5 1
     9      4     12 1
    10      5      6 1
    11      5     13 1
    12      6      7 1
    13      6     14 1
    14      7     15 1
@<TRIPOS>SUBSTRUCTURE
  1 LIG 1 TEMP
