@<TRIPOS>MOLECULE
LIG
8 7 1 0 0
SMALL
USER_CHARGES
****
generated by FESetup
@<TRIPOS>ATOM
     1 C1      13.5821    14.4458    12.8443 c3    1 LIG -0.094350
     2 C2      14.2884    13.4454    12.1142 c3    1 LIG -0.094350
     3 H3      12.5021    14.5066    12.6627 hc    1 LIG  0.031450
     4 H4      14.0079    15.4321    12.6227 hc    1 LIG  0.031450
     5 H5      13.6570    14.2927    13.9279 hc    1 LIG  0.031450
     6 H6      15.1995    13.7868    12.1031 hc    1 LIG  0.031450
     7 H7      13.8740    13.3402    11.1079 hc    1 LIG  0.031450
     8 H8      14.2158    12.4787    12.6204 hc    1 LIG  0.031450
@<TRIPOS>BOND
     0      1      2 1
     1      1      3 1
     2      1      4 1
     3      1      5 1
     4      2      6 1
     5      2      7 1
     6      2      8 1
@<TRIPOS>SUBSTRUCTURE
  1 LIG 1 TEMP
