@<TRIPOS>MOLECULE
LIG
12 12 1 0 0
SMALL
USER_CHARGES
****
generated by FESetup
@<TRIPOS>ATOM
     1 C1      13.7268    13.7209    14.2202 c3    1 LIG -0.108400
     2 H2      13.4436    12.7928    13.7085 zz    1 LIG  0.027100
     3 H3      13.4122    14.5815    13.6172 hc    1 LIG  0.027100
     4 H4      14.8070    13.7653    14.4052 hc    1 LIG  0.027100
     5 H5      13.1706    13.8146    15.1609 hc    1 LIG  0.027100
     6 DU6     12.7836    12.9240    12.5246 du    1 LIG  0.000000
     7 DU7     12.5318    11.6690    12.0704 du    1 LIG  0.000000
     8 DU8     13.0225    10.7320    12.9487 du    1 LIG  0.000000
     9 DU9     13.6124    11.4579    14.0103 du    1 LIG  0.000000
    10 DU10    12.0068    11.6117    11.1273 du    1 LIG  0.000000
    11 DU11    12.9604     9.6589    12.8358 du    1 LIG  0.000000
    12 DU12    14.1022    11.0602    14.8883 du    1 LIG  0.000000
@<TRIPOS>BOND
     0      1      2 1
     1      1      3 1
     2      1      4 1
     3      1      5 1
     4      2      6 1
     5      2      9 1
     6      6      7 1
     7      7      8 1
     8      7     10 1
     9      8      9 1
    10      8     11 1
    11      9     12 1
@<TRIPOS>SUBSTRUCTURE
  1 LIG 1 TEMP
