@<TRIPOS>MOLECULE
LIG
8 7 1 0 0
SMALL
USER_CHARGES
****
generated by FESetup
@<TRIPOS>ATOM
     1 C1      13.6729    14.4510    13.6464 c3    1 LIG  0.116700
     2 O2      14.0967    14.5001    15.0250 oh    1 LIG -0.598800
     3 H3      12.8508    15.1703    13.5462 h1    1 LIG  0.028700
     4 H4      13.2449    13.4844    13.3536 h1    1 LIG  0.028700
     5 H5      14.4222    14.7880    12.9196 h1    1 LIG  0.028700
     6 H6      14.1139    15.4146    15.3566 ho    1 LIG  0.396000
     7 DU7     15.1014    14.0824    15.1328 du    1 LIG  0.000000
     8 DU8     13.4139    13.9247    15.6564 du    1 LIG  0.000000
@<TRIPOS>BOND
     0      1      2 1
     1      1      3 1
     2      1      4 1
     3      1      5 1
     4      2      6 1
     5      2      7 1
     6      2      8 1
@<TRIPOS>SUBSTRUCTURE
  1 LIG 1 TEMP
