@<TRIPOS>MOLECULE
LIG
 5 4 0 0 0
SMALL
USER_CHARGES
****
generated by FESetup
@<TRIPOS>ATOM
      1 C1          0.9970   -0.0830    0.0560 C.3     1  LIG1        0.0718
      2 O2          2.4130   -0.0920    0.0600 O.3     1  LIG1       -0.2383
      3 H3          0.6360    0.3130   -0.8960 H       1  LIG1        0.0555
      4 H4          0.6340    0.5340    0.8820 H       1  LIG1        0.0555
      5 H5          0.6360   -1.1070    0.1830 H       1  LIG1        0.0555
@<TRIPOS>BOND
     1     1     2    1
     2     1     3    1
     3     1     4    1
     4     1     5    1
