@<TRIPOS>MOLECULE
LIG
 5 4 0 0 0
SMALL
USER_CHARGES
****
generated by FESetup
@<TRIPOS>ATOM
      1 C1          0.9260    0.0810    0.0170 C.3     1  LIG1       -0.0580
      2 C2          2.4230    0.1100   -0.0690 C.3     1  LIG1       -0.0127
      3 H8          0.5110    1.0870    0.1420 H       1  LIG1        0.0236
      4 H9          0.6080   -0.5180    0.8770 H       1  LIG1        0.0236
      5 H10         0.5060   -0.3490   -0.8970 H       1  LIG1        0.0236
@<TRIPOS>BOND
     1     1     2    1
     2     1     3    1
     3     1     4    1
     4     1     5    1
