@<TRIPOS>MOLECULE
LIG
5 4 1 0 0
SMALL
USER_CHARGES
****
generated by FESetup
@<TRIPOS>ATOM
     1 C1      13.5821    14.4458    12.8443 c3    1 LIG -0.108400
     2 H2      14.2884    13.4454    12.1142 hc    1 LIG  0.027100
     3 H3      12.5021    14.5066    12.6627 hc    1 LIG  0.027100
     4 H4      14.0079    15.4321    12.6227 hc    1 LIG  0.027100
     5 H5      13.6570    14.2927    13.9279 hc    1 LIG  0.027100
@<TRIPOS>BOND
     0      1      2 1
     1      1      3 1
     2      1      4 1
     3      1      5 1
@<TRIPOS>SUBSTRUCTURE
  1 LIG 1 TEMP
