@<TRIPOS>MOLECULE
LIG
 16 17 0 0 0
SMALL
USER_CHARGES
****
generated by FESetup
@<TRIPOS>ATOM
      1 H1          1.2160   -0.4430    2.4390 H       1  LIG1        0.0313
      2 C2          0.6690   -0.3640    1.5050 C.3     1  LIG1       -0.0257
      3 C3         -0.7160   -0.4550    1.4930 C.3     1  LIG1       -0.0302
      4 H4         -1.2570   -0.6010    2.4240 H       1  LIG1        0.0309
      5 C5         -1.4140   -0.3550    0.2910 C.3     1  LIG1       -0.0254
      6 H6         -2.4990   -0.3990    0.3590 H       1  LIG1        0.0313
      7 C7         -0.7870   -0.1950   -0.9740 C.3     1  LIG1        0.0102
      8 C8          0.6210   -0.0230   -0.9010 C.3     1  LIG1        0.0527
      9 N9          1.5630    0.2850   -1.8640 N.3     1  LIG1       -0.3034
     10 C10         1.3460   -0.1230    0.2980 C.3     1  LIG1        0.0072
     11 C11         2.7250    0.0640    0.0020 C.3     1  LIG1       -0.0110
     12 C12         2.8270    0.3150   -1.3410 C.3     1  LIG1        0.0276
     13 C13        -1.6810   -0.1240   -2.2200 C.3     1  LIG1        0.0010
     14 H27         3.5460    0.0370    0.7060 H       1  LIG1        0.0326
     15 H28         3.6830    0.5290   -1.9670 H       1  LIG1        0.0479
     16 H29         1.3640    0.4920   -2.8270 H       1  LIG1        0.1229
@<TRIPOS>BOND
     1     1     2    1
     2     2     3    1
     3     2    10    1
     4     3     4    1
     5     3     5    1
     6     5     6    1
     7     5     7    1
     8     7     8    1
     9     7    13    1
    10     8     9    1
    11     8    10    1
    12     9    16    1
    13     9    12    1
    14    10    11    1
    15    11    14    1
    16    11    12    1
    17    12    15    1
