@<TRIPOS>MOLECULE
t.pdb
 19 20 1 0 0
SMALL
USER_CHARGES
****
generated by FESetup
@<TRIPOS>ATOM
      1  C1        13.0970   15.0240   15.1130 c3    1 LIG -0.043953
      2  C2        14.4320   14.8800   14.3870 cc    1 LIG -0.059353
      3  H11       12.3480   15.2080   14.3330 hc    1 LIG  0.051314
      4  H12       13.0560   15.8430   15.8410 hc    1 LIG  0.051314
      5  H13       12.8250   14.1150   15.6640 hc    1 LIG  0.051314
      6  N3        15.1410   13.6780   14.0540 na    1 LIG -0.194453
      7  C9        16.1960   15.4160   13.0590 ca    1 LIG -0.093853
      8  H19       14.6970   16.9230   13.8390 ha    1 LIG  0.154947
      9  H18       17.2940   17.0900   12.3560 ha    1 LIG  0.132947
     10  H17       19.1730   15.7020   11.4940 ha    1 LIG  0.127947
     11  H15       17.2580   12.1970   13.1200 ha    1 LIG  0.129947
     12  H14       15.0570   12.7210   14.3650 hn    1 LIG  0.295647
     13  C10       15.1300   15.9290   13.8350 cd    1 LIG -0.185253
     14  C8        17.2590   16.0080   12.4330 ca    1 LIG -0.083053
     15  C7        18.3600   15.2190   12.0290 ca    1 LIG -0.160053
     16  C6        18.3070   13.8310   12.1920 ca    1 LIG -0.113053
     17  C5        17.2140   13.2540   12.8720 ca    1 LIG -0.148053
     18  C4        16.1790   14.0610   13.2390 ca    1 LIG -0.042253
     19  H16       19.0940   13.1760   11.8300 ha    1 LIG  0.127947
@<TRIPOS>BOND
     1    10    15    1
     2    19    16    1
     3    15    16   ar
     4    15    14   ar
     5    16    17   ar
     6     9    14    1
     7    14     7   ar
     8    17    11    1
     9    17    18   ar
    10     7    18   ar
    11     7    13   ar
    12    18     6   ar
    13    13     8    1
    14    13     2   ar
    15     6    12    1
    16     6     2   ar
    17     3     1    1
    18     2     1    1
    19     1     5    1
    20     1     4    1
@<TRIPOS>SUBSTRUCTURE
  1 LIG 1 TEMP
