@<TRIPOS>MOLECULE
LIG
 5 4 0 0 0
SMALL
USER_CHARGES
****
generated by FESetup
@<TRIPOS>ATOM
      1 C1          0.8960    0.0090    0.0010 C.3     1  LIG1        0.0000
      2 C2          0.4570    0.9980   -1.0890 C.3     1  LIG1        0.0000
      3 C3          0.3780   -1.3950   -0.3420 C.3     1  LIG1        0.0000
      4 C4          0.3190    0.4500    1.3550 C.3     1  LIG1        0.0000
      5 C5          2.4290   -0.0160    0.0830 C.3     1  LIG1        0.0000
@<TRIPOS>BOND
     1     1     2    1
     2     1     3    1
     3     1     4    1
     4     1     5    1
