@<TRIPOS>MOLECULE
LIG
 5 4 0 0 0
SMALL
USER_CHARGES
****
generated by FESetup
@<TRIPOS>ATOM
      1 C1          1.2700   -0.1550    0.1940 C.3     1  LIG1       -0.0580
      2 C2          2.7030   -0.0190   -0.1620 C.3     1  LIG1       -0.0127
      3 H11         0.7990    0.8270    0.3040 H       1  LIG1        0.0236
      4 H12         1.1570   -0.6950    1.1380 H       1  LIG1        0.0236
      5 H13         0.7310   -0.7020   -0.5860 H       1  LIG1        0.0236
@<TRIPOS>BOND
     1     1     2    1
     2     1     3    1
     3     1     4    1
     4     1     5    1
