@<TRIPOS>MOLECULE
LIG
 5 4 0 0 0
SMALL
USER_CHARGES
****
generated by FESetup
@<TRIPOS>ATOM
      1 C1          1.0920    0.0290   -0.0040 C.3     1  LIG1       -0.0776
      2 H2          2.1850    0.0270   -0.0190 H       1  LIG1        0.0194
      3 H3          0.7200   -0.8570   -0.5230 H       1  LIG1        0.0194
      4 H4          0.7230    0.9260   -0.5050 H       1  LIG1        0.0194
      5 H5          0.7430    0.0190    1.0300 H       1  LIG1        0.0194
@<TRIPOS>BOND
     1     1     2    1
     2     1     3    1
     3     1     4    1
     4     1     5    1
