@<TRIPOS>MOLECULE
LIG
19 20 1 0 0
SMALL
USER_CHARGES
****
generated by FESetup
@<TRIPOS>ATOM
     1 C1       1.2700    -0.1550     0.1940 c3    1 LIG -0.043953
     2 C2       2.7030    -0.0190    -0.1620 cc    1 LIG -0.059353
     3 N3       3.5000    -1.1160    -0.3830 na    1 LIG -0.194453
     4 C4       4.7770    -0.7250    -0.7190 ca    1 LIG -0.042253
     5 C5       5.9020    -1.4920    -1.0380 ca    1 LIG -0.148053
     6 C6       7.0830    -0.8100    -1.3480 ca    1 LIG -0.113053
     7 C7       7.1330     0.5820    -1.3340 ca    1 LIG -0.160053
     8 C8       5.9980     1.3340    -1.0090 ca    1 LIG -0.083053
     9 C9       4.7970     0.6680    -0.6970 ca    1 LIG -0.093853
    10 C10      3.4890     1.1000    -0.3410 cd    1 LIG -0.185253
    11 H11      0.7990     0.8270     0.3040 hc    1 LIG  0.051314
    12 H12      1.1570    -0.6950     1.1380 hc    1 LIG  0.051314
    13 H13      0.7310    -0.7020    -0.5860 hc    1 LIG  0.051314
    14 H14      3.1970    -2.0780    -0.3210 hn    1 LIG  0.295647
    15 H15      5.8670    -2.5770    -1.0500 ha    1 LIG  0.129947
    16 H16      7.9760    -1.3760    -1.6050 ha    1 LIG  0.127947
    17 H17      8.0610     1.0920    -1.5800 ha    1 LIG  0.127947
    18 H18      6.0430     2.4190    -1.0010 ha    1 LIG  0.132947
    19 H19      3.1600     2.1260    -0.2370 ha    1 LIG  0.154947
@<TRIPOS>BOND
     0      1      2 1
     1      1     11 1
     2      1     12 1
     3      1     13 1
     4      2      3 1
     5      2     10 1
     6      3      4 1
     7      3     14 1
     8      4      5 1
     9      4      9 1
    10      5      6 1
    11      5     15 1
    12      6      7 1
    13      6     16 1
    14      7      8 1
    15      7     17 1
    16      8     18 1
    17      8      9 1
    18      9     10 1
    19     10     19 1
@<TRIPOS>SUBSTRUCTURE
  1 LIG 1 TEMP
