@<TRIPOS>MOLECULE
LIG
8 7 1 0 0
SMALL
USER_CHARGES
****
generated by FESetup
@<TRIPOS>ATOM
     1 C1      13.7268    13.7209    14.2202 c3    1 LIG -0.108400
     2 H2      13.4436    12.7928    13.7085 zz    1 LIG  0.027100
     3 H3      13.4122    14.5815    13.6172 hc    1 LIG  0.027100
     4 H4      14.8070    13.7653    14.4052 hc    1 LIG  0.027100
     5 H5      13.1706    13.8146    15.1609 hc    1 LIG  0.027100
     6 DU6     13.9240    12.7333    12.7271 du    1 LIG  0.000000
     7 DU7     12.3605    12.7484    13.5655 du    1 LIG  0.000000
     8 DU8     13.7504    11.9227    14.2956 du    1 LIG  0.000000
@<TRIPOS>BOND
     0      1      2 1
     1      1      3 1
     2      1      4 1
     3      1      5 1
     4      2      6 1
     5      2      7 1
     6      2      8 1
@<TRIPOS>SUBSTRUCTURE
  1 LIG 1 TEMP
