@<TRIPOS>MOLECULE
LIG
19 20 1 0 0
SMALL
USER_CHARGES
****
generated by FESetup
@<TRIPOS>ATOM
     1 C1       1.0920     0.0290    -0.0040 c3    1 LIG -0.108400
     2 H2       2.1850     0.0270    -0.0190 zz    1 LIG  0.027100
     3 H3       0.7200    -0.8570    -0.5230 hc    1 LIG  0.027100
     4 H4       0.7230     0.9260    -0.5050 hc    1 LIG  0.027100
     5 H5       0.7430     0.0190     1.0300 hc    1 LIG  0.027100
     6 DU6      2.9179     1.0159     0.5912 du    1 LIG  0.000000
     7 DU7      4.2663     0.7740     0.4503 du    1 LIG  0.000000
     8 DU8      5.3676     1.4991     0.9162 du    1 LIG  0.000000
     9 DU9      6.6411     1.0022     0.6207 du    1 LIG  0.000000
    10 DU10     6.8015    -0.1700    -0.1146 du    1 LIG  0.000000
    11 DU11     5.6878    -0.8813    -0.5761 du    1 LIG  0.000000
    12 DU12     4.3959    -0.4011    -0.2871 du    1 LIG  0.000000
    13 DU13     3.0810    -0.8586    -0.5802 du    1 LIG  0.000000
    14 DU14     2.5302     1.8071     1.0859 du    1 LIG  0.000000
    15 DU15     5.2467     2.4130     1.4896 du    1 LIG  0.000000
    16 DU16     7.5197     1.5393     0.9718 du    1 LIG  0.000000
    17 DU17     7.8006    -0.5395    -0.3315 du    1 LIG  0.000000
    18 DU18     5.8194    -1.7952    -1.1479 du    1 LIG  0.000000
    19 DU19     2.8229    -1.7502    -1.1372 du    1 LIG  0.000000
@<TRIPOS>BOND
     0      1      2 1
     1      1      3 1
     2      1      4 1
     3      1      5 1
     4      2      6 1
     5      2     13 1
     6      6      7 1
     7      6     14 1
     8      7      8 1
     9      7     12 1
    10      8      9 1
    11      8     15 1
    12      9     10 1
    13      9     16 1
    14     10     11 1
    15     10     17 1
    16     11     18 1
    17     11     12 1
    18     12     13 1
    19     13     19 1
@<TRIPOS>SUBSTRUCTURE
  1 LIG 1 TEMP
