@<TRIPOS>MOLECULE
LIG
19 20 1 0 0
SMALL
USER_CHARGES
****
generated by FESetup
@<TRIPOS>ATOM
     1 C1      14.0824    15.3252    15.1681 c3    1 LIG -0.043953
     2 C2      15.5445    15.0633    14.8991 cc    1 LIG -0.059353
     3 N3      16.1249    13.8157    14.5845 na    1 LIG -0.194453
     4 C4      17.4663    14.1167    14.2968 ca    1 LIG -0.042253
     5 C5      18.4076    13.3273    13.7095 ca    1 LIG -0.148053
     6 C6      19.7011    13.8838    13.4436 ca    1 LIG -0.113053
     7 C7      19.9690    15.2103    13.8114 ca    1 LIG -0.160053
     8 C8      18.9858    15.9804    14.4632 ca    1 LIG -0.083053
     9 C9      17.7583    15.3930    14.6734 ca    1 LIG -0.093853
    10 C10     16.5268    16.0230    15.1031 cd    1 LIG -0.185253
    11 H11     13.4339    14.4697    15.3932 hc    1 LIG  0.051314
    12 H12     13.6746    15.7205    14.2297 hc    1 LIG  0.051314
    13 H13     13.8766    16.0733    15.9433 hc    1 LIG  0.051314
    14 H14     15.6440    12.9321    14.4943 hn    1 LIG  0.295647
    15 H15     18.1772    12.3000    13.4433 ha    1 LIG  0.129947
    16 H16     20.4879    13.2652    13.0221 ha    1 LIG  0.127947
    17 H17     20.8837    15.6690    13.4478 ha    1 LIG  0.127947
    18 H18     19.1156    17.0571    14.5202 ha    1 LIG  0.132947
    19 H19     16.2474    16.9975    15.4862 ha    1 LIG  0.154947
@<TRIPOS>BOND
     0      1      2 1
     1      1     11 1
     2      1     12 1
     3      1     13 1
     4      2      3 1
     5      2     10 1
     6      3      4 1
     7      3     14 1
     8      4      5 1
     9      4      9 1
    10      5      6 1
    11      5     15 1
    12      6      7 1
    13      6     16 1
    14      7      8 1
    15      7     17 1
    16      8     18 1
    17      8      9 1
    18      9     10 1
    19     10     19 1
@<TRIPOS>SUBSTRUCTURE
  1 LIG 1 TEMP
