@<TRIPOS>MOLECULE
LIG
17 16 1 0 0
SMALL
USER_CHARGES
****
generated by FESetup
@<TRIPOS>ATOM
     1 C1      14.6404    15.1318    16.3530 c3    1 LIG -0.060235
     2 C2      14.2920    16.1285    15.2263 c3    1 LIG -0.085335
     3 C3      14.2423    13.7654    15.7858 c3    1 LIG -0.085335
     4 C4      13.8321    15.4786    17.6254 c3    1 LIG -0.085335
     5 C5      16.2004    15.2734    16.7105 c3    1 LIG -0.085335
     6 H6      14.4157    17.1662    15.5594 hc    1 LIG  0.033465
     7 H7      13.2818    16.0397    14.8082 hc    1 LIG  0.033465
     8 H8      14.9660    15.9209    14.3861 hc    1 LIG  0.033465
     9 H9      14.2849    13.0153    16.5851 hc    1 LIG  0.033465
    10 H10     14.8635    13.4377    14.9433 hc    1 LIG  0.033465
    11 H11     13.1964    13.6935    15.4631 hc    1 LIG  0.033465
    12 H12     14.2985    15.1000    18.5432 hc    1 LIG  0.033465
    13 H13     12.8120    15.0860    17.5326 hc    1 LIG  0.033465
    14 H14     13.7619    16.5730    17.6493 hc    1 LIG  0.033465
    15 H15     16.7194    15.2039    15.7467 hc    1 LIG  0.033465
    16 H16     16.5256    14.5030    17.4205 hc    1 LIG  0.033465
    17 H17     16.4879    16.2617    17.0897 hc    1 LIG  0.033465
@<TRIPOS>BOND
     0      1      2 1
     1      1      3 1
     2      1      4 1
     3      1      5 1
     4      2      6 1
     5      2      7 1
     6      2      8 1
     7      3      9 1
     8      3     10 1
     9      3     11 1
    10      4     12 1
    11      4     13 1
    12      4     14 1
    13      5     15 1
    14      5     16 1
    15      5     17 1
@<TRIPOS>SUBSTRUCTURE
  1 LIG 1 TEMP
