@<TRIPOS>MOLECULE
LIG
12 12 1 0 0
SMALL
USER_CHARGES
****
generated by FESetup
@<TRIPOS>ATOM
     1 C1      14.1797    16.5841    13.5457 c3    1 LIG -0.108400
     2 H2      15.5439    16.2037    13.8792 hc    1 LIG  0.027100
     3 DU6     16.5388    16.7210    13.1594 du    1 LIG  0.000000
     4 DU7     17.6244    16.3048    13.8638 du    1 LIG  0.000000
     5 DU8     17.3069    15.5444    14.9417 du    1 LIG  0.000000
     6 DU9     15.8921    15.3633    14.9209 du    1 LIG  0.000000
     7 H3      13.5184    16.0399    14.2311 hc    1 LIG  0.027100
     8 H4      13.9664    16.4459    12.4787 hc    1 LIG  0.027100
     9 H5      14.1560    17.6341    13.8625 hc    1 LIG  0.027100
    10 DU10    18.5414    16.5498    13.3449 du    1 LIG  0.000000
    11 DU11    18.0433    15.1795    15.6481 du    1 LIG  0.000000
    12 DU12    15.2910    14.8265    15.6454 du    1 LIG  0.000000
@<TRIPOS>BOND
     0      1      2 1
     1      1      7 1
     2      1      8 1
     3      1      9 1
     4      2      3 1
     5      2      6 1
     6      3      4 1
     7      4      5 1
     8      4     10 1
     9      5      6 1
    10      5     11 1
    11      6     12 1
@<TRIPOS>SUBSTRUCTURE
  1 LIG 1 TEMP
