@<TRIPOS>MOLECULE
LIG
15 15 1 0 0
SMALL
USER_CHARGES
****
generated by FESetup
@<TRIPOS>ATOM
     1 C1      14.6375    15.6324    13.3612 c3    1 LIG -0.053800
     2 C2      16.1530    15.7113    13.3564 ca    1 LIG -0.077300
     3 C3      16.8522    16.8036    13.9102 ca    1 LIG -0.131000
     4 C4      18.2441    16.9260    13.7338 ca    1 LIG -0.127000
     5 C5      18.9233    15.9397    12.9860 ca    1 LIG -0.135000
     6 C6      18.2707    14.8240    12.4436 ca    1 LIG -0.127000
     7 C7      16.8779    14.7202    12.6699 ca    1 LIG -0.131000
     8 H8      14.1123    16.5907    13.2671 hc    1 LIG  0.044033
     9 H9      14.2523    15.2622    14.3192 hc    1 LIG  0.044033
    10 H10     14.3791    14.9485    12.5435 hc    1 LIG  0.044033
    11 H11     16.2743    17.5906    14.3858 ha    1 LIG  0.130000
    12 H12     18.7391    17.8205    14.1004 ha    1 LIG  0.130000
    13 H13     19.9914    16.0029    12.8000 ha    1 LIG  0.130000
    14 H14     18.8080    14.0710    11.8746 ha    1 LIG  0.130000
    15 H15     16.3492    13.8529    12.2858 ha    1 LIG  0.130000
@<TRIPOS>BOND
     0      1      2 1
     1      1      8 1
     2      1      9 1
     3      1     10 1
     4      2      3 1
     5      2      7 1
     6      3      4 1
     7      3     11 1
     8      4      5 1
     9      4     12 1
    10      5      6 1
    11      5     13 1
    12      6      7 1
    13      6     14 1
    14      7     15 1
@<TRIPOS>SUBSTRUCTURE
  1 LIG 1 TEMP
