@<TRIPOS>MOLECULE
LIG
15 15 1 0 0
SMALL
USER_CHARGES
****
generated by FESetup
@<TRIPOS>ATOM
     1 C1      13.4219    13.6705    11.5540 c3    1 LIG -0.108400
     2 H2      13.6960    14.1654    10.6142 hc    1 LIG  0.027100
     3 H3      12.4737    13.1376    11.4117 hc    1 LIG  0.027100
     4 H4      13.1973    14.4117    12.3308 hc    1 LIG  0.027100
     5 H5      14.2217    13.0052    11.9016 hc    1 LIG  0.027100
     6 DU6     12.9534    13.9538     9.4455 du    1 LIG  0.000000
     7 DU7     13.3182    14.5827     8.2539 du    1 LIG  0.000000
     8 DU8     14.4295    15.4230     8.2187 du    1 LIG  0.000000
     9 DU9     15.1763    15.6360     9.3750 du    1 LIG  0.000000
    10 DU10    14.8126    15.0092    10.5670 du    1 LIG  0.000000
    11 DU11    12.0856    13.2994     9.4552 du    1 LIG  0.000000
    12 DU12    12.7358    14.4146     7.3517 du    1 LIG  0.000000
    13 DU13    14.7126    15.9115     7.2895 du    1 LIG  0.000000
    14 DU14    16.0441    16.2903     9.3484 du    1 LIG  0.000000
    15 DU15    15.4057    15.1815    11.4627 du    1 LIG  0.000000
@<TRIPOS>BOND
     0      1      2 1
     1      1      3 1
     2      1      4 1
     3      1      5 1
     4      2      6 1
     5      2     10 1
     6      6      7 1
     7      6     11 1
     8      7      8 1
     9      7     12 1
    10      8      9 1
    11      8     13 1
    12      9     10 1
    13      9     14 1
    14     10     15 1
@<TRIPOS>SUBSTRUCTURE
  1 LIG 1 TEMP
