@<TRIPOS>MOLECULE
L1
5 4 1 0 0
SMALL
USER_CHARGES
****
generated by FESetup
@<TRIPOS>ATOM
     1 C1      14.5315    14.0264    15.4613 c3    1 L1 -0.108400
     2 H2      14.1816    15.3824    14.7245 hc    1 L1  0.027100
     3 H3      13.9796    12.7887    14.6789 hc    1 L1  0.027100
     4 H4      13.9400    14.2291    16.9094 hc    1 L1  0.027100
     5 H5      16.0598    13.9131    15.5507 hc    1 L1  0.027100
@<TRIPOS>BOND
     0      1      2 1
     1      1      3 1
     2      1      4 1
     3      1      5 1
@<TRIPOS>SUBSTRUCTURE
  1 L1 1 TEMP
