@<TRIPOS>MOLECULE
L1
8 7 1 0 0
SMALL
USER_CHARGES
****
generated by FESetup
@<TRIPOS>ATOM
     1 C1      13.4219    13.6705    11.5540 c3    1 L1 -0.094350
     2 C2      13.6960    14.1654    10.6142 c3    1 L1 -0.094350
     3 H3      12.4737    13.1376    11.4117 hc    1 L1  0.031450
     4 H4      13.1973    14.4117    12.3308 hc    1 L1  0.031450
     5 H5      14.2217    13.0052    11.9016 hc    1 L1  0.031450
     6 H6      12.9224    14.8798    10.3165 hc    1 L1  0.031450
     7 H7      13.8133    13.4304     9.8133 hc    1 L1  0.031450
     8 H8      14.6396    14.7065    10.7272 hc    1 L1  0.031450
@<TRIPOS>BOND
     0      1      2 1
     1      1      3 1
     2      1      4 1
     3      1      5 1
     4      2      6 1
     5      2      7 1
     6      2      8 1
@<TRIPOS>SUBSTRUCTURE
  1 L1 1 TEMP
