@<TRIPOS>MOLECULE
LIG
42 45 1 0 0
SMALL
USER_CHARGES
****
generated by FESetup
@<TRIPOS>ATOM
     1 H1       1.2160    -0.4430     2.4390 ha    1 LIG  0.132862
     2 C2       0.6690    -0.3640     1.5050 ca    1 LIG -0.083138
     3 C3      -0.7160    -0.4550     1.4930 ca    1 LIG -0.159138
     4 H4      -1.2570    -0.6010     2.4240 ha    1 LIG  0.127862
     5 C5      -1.4140    -0.3550     0.2910 ca    1 LIG -0.112138
     6 H6      -2.4990    -0.3990     0.3590 ha    1 LIG  0.127862
     7 C7      -0.7870    -0.1950    -0.9740 ca    1 LIG -0.088438
     8 C8       0.6210    -0.0230    -0.9010 ca    1 LIG -0.041338
     9 N9       1.5630     0.2850    -1.8640 na    1 LIG -0.192538
    10 C10      1.3460    -0.1230     0.2980 ca    1 LIG -0.095938
    11 C11      2.7250     0.0640     0.0020 cc    1 LIG -0.190338
    12 C12      2.8270     0.3150    -1.3410 cd    1 LIG -0.111238
    13 C13     -1.6810    -0.1240    -2.2200 c3    1 LIG -0.016538
    14 H14     -2.1020     0.8890    -2.2470 hc    1 LIG  0.055562
    15 C15     -1.0630    -0.4680    -3.5840 c3    1 LIG -0.081538
    16 H16     -1.7480    -0.1340    -4.3760 hc    1 LIG  0.049562
    17 H17     -0.1100    -0.0060    -3.8190 hc    1 LIG  0.049562
    18 C18     -1.0010    -1.9910    -3.6150 c3    1 LIG -0.084538
    19 H19     -1.0690    -2.3750    -4.6380 hc    1 LIG  0.039562
    20 H20     -0.0580    -2.3500    -3.1880 hc    1 LIG  0.039562
    21 C21     -2.1740    -2.4530    -2.7550 c3    1 LIG -0.084538
    22 H22     -2.8900    -3.0510    -3.3270 hc    1 LIG  0.039562
    23 H23     -1.8110    -3.0720    -1.9260 hc    1 LIG  0.039562
    24 C24     -2.8210    -1.1710    -2.2290 c3    1 LIG -0.081538
    25 H25     -3.5950    -0.8490    -2.9390 hc    1 LIG  0.049562
    26 H26     -3.3310    -1.3430    -1.2800 hc    1 LIG  0.049562
    27 H27      3.5460     0.0370     0.7060 ha    1 LIG  0.154862
    28 H28      3.6830     0.5290    -1.9670 zz    1 LIG  0.162862
    29 H29      1.3640     0.4920    -2.8270 hn    1 LIG  0.304562
    30 DU30     4.2942    -0.3814    -1.9957 du    1 LIG  0.000000
    31 DU31     3.3742     0.9865    -3.3944 du    1 LIG  0.000000
    32 DU32     4.2467     0.7802    -4.0287 du    1 LIG  0.000000
    33 DU33     2.5235     0.4863    -3.8646 du    1 LIG  0.000000
    34 DU34     3.1841     2.5000    -3.3140 du    1 LIG  0.000000
    35 DU35     3.6280     2.9945    -4.1853 du    1 LIG  0.000000
    36 DU36     2.1205     2.7606    -3.2972 du    1 LIG  0.000000
    37 DU37     3.8549     2.9468    -2.0176 du    1 LIG  0.000000
    38 DU38     4.5874     3.7424    -2.1891 du    1 LIG  0.000000
    39 DU39     3.1010     3.3396    -1.3252 du    1 LIG  0.000000
    40 DU40     4.5141     1.7012    -1.4352 du    1 LIG  0.000000
    41 DU41     5.5387     1.6252    -1.8203 du    1 LIG  0.000000
    42 DU42     4.5784     1.7499    -0.3437 du    1 LIG  0.000000
@<TRIPOS>BOND
     0      1      2 1
     1      2      3 1
     2      2     10 1
     3      3      4 1
     4      3      5 1
     5      5      6 1
     6      5      7 1
     7      7      8 1
     8      7     13 1
     9      8      9 1
    10      8     10 1
    11      9     29 1
    12      9     12 1
    13     10     11 1
    14     11     27 1
    15     11     12 1
    16     12     28 1
    17     13     24 1
    18     13     14 1
    19     13     15 1
    20     15     18 1
    21     15     16 1
    22     15     17 1
    23     18     19 1
    24     18     20 1
    25     18     21 1
    26     21     22 1
    27     21     23 1
    28     21     24 1
    29     24     25 1
    30     24     26 1
    31     28     40 1
    32     28     30 1
    33     28     31 1
    34     31     32 1
    35     31     33 1
    36     31     34 1
    37     34     35 1
    38     34     36 1
    39     34     37 1
    40     37     38 1
    41     37     39 1
    42     37     40 1
    43     40     41 1
    44     40     42 1
@<TRIPOS>SUBSTRUCTURE
  1 LIG 1 TEMP
