@<TRIPOS>MOLECULE
LIG
17 16 1 0 0
SMALL
USER_CHARGES
****
generated by FESetup
@<TRIPOS>ATOM
     1 C1      12.5910    12.2045    13.4136 c3    1 LIG -0.108400
     2 H2      12.9475    11.6573    14.2887 hc    1 LIG  0.027100
     3 H3      12.9492    13.2360    13.4088 hc    1 LIG  0.027100
     4 H4      11.4999    12.1823    13.4525 hc    1 LIG  0.027100
     5 H5      12.9447    11.6897    12.5178 hc    1 LIG  0.027100
     6 DU6     12.4133    10.2185    14.2462 du    1 LIG  0.000000
     7 DU7     12.4470    12.3508    15.5651 du    1 LIG  0.000000
     8 DU8     14.4827    11.6344    14.2884 du    1 LIG  0.000000
     9 DU9     12.7560     9.6434    15.1133 du    1 LIG  0.000000
    10 DU10    12.7540     9.6976    13.3446 du    1 LIG  0.000000
    11 DU11    11.3185    10.2025    14.2470 du    1 LIG  0.000000
    12 DU12    12.7878    11.8222    16.4621 du    1 LIG  0.000000
    13 DU13    11.3522    12.3839    15.5932 du    1 LIG  0.000000
    14 DU14    12.8133    13.3813    15.6254 du    1 LIG  0.000000
    15 DU15    14.8708    11.0912    15.1569 du    1 LIG  0.000000
    16 DU16    14.8942    12.6500    14.3183 du    1 LIG  0.000000
    17 DU17    14.8708    11.1444    13.3883 du    1 LIG  0.000000
@<TRIPOS>BOND
     0      1      2 1
     1      1      3 1
     2      1      4 1
     3      1      5 1
     4      2      6 1
     5      2      7 1
     6      2      8 1
     7      6      9 1
     8      6     10 1
     9      6     11 1
    10      7     12 1
    11      7     13 1
    12      7     14 1
    13      8     15 1
    14      8     16 1
    15      8     17 1
@<TRIPOS>SUBSTRUCTURE
  1 LIG 1 TEMP
