@<TRIPOS>MOLECULE
LIG
   29    31     1     0     0
SMALL
No Charge or Current Charge


@<TRIPOS>ATOM
      1 H1           1.1390    -0.3910     2.4490 ha         1 LIG       0.131931
      2 C2           0.5980    -0.2940     1.5130 ca         1 LIG      -0.083069
      3 C3          -0.7940    -0.4410     1.4850 ca         1 LIG      -0.160069
      4 H4          -1.3300    -0.6510     2.4070 ha         1 LIG       0.127931
      5 C5          -1.4950    -0.3260     0.2860 ca         1 LIG      -0.114069
      6 H6          -2.5760    -0.4480     0.2840 ha         1 LIG       0.126931
      7 C7          -0.8310    -0.0560    -0.9150 ca         1 LIG      -0.147069
      8 H8          -1.3810     0.0310    -1.8460 ha         1 LIG       0.129931
      9 C9           0.5610     0.0880    -0.8680 ca         1 LIG      -0.044269
     10 N10          1.4660     0.3470    -1.8750 na         1 LIG      -0.187469
     11 C11          1.2870    -0.0280     0.3150 ca         1 LIG      -0.093869
     12 C12          2.6550     0.1520    -0.0200 cc         1 LIG      -0.187269
     13 C13          2.7520     0.3740    -1.3830 cd         1 LIG      -0.053369
     14 H14          1.2020     0.4720    -2.8410 hn         1 LIG       0.298631
     15 H15          3.4890     0.1030     0.6670 ha         1 LIG       0.154931
     16 C16          3.9870     0.5480    -2.2270 c3         1 LIG      -0.010569
     17 H17          4.5550    -0.3880    -2.1600 hc         1 LIG       0.069631
     18 C18          3.7520     0.9030    -3.6970 c3         1 LIG      -0.080969
     19 H19          4.6360     0.6080    -4.2780 hc         1 LIG       0.050631
     20 H20          2.8960     0.4050    -4.1600 hc         1 LIG       0.050631
     21 C21          3.6310     2.4250    -3.7430 c3         1 LIG      -0.082969
     22 H22          4.1290     2.8280    -4.6320 hc         1 LIG       0.041631
     23 H23          2.5810     2.7330    -3.7890 hc         1 LIG       0.041631
     24 C24          4.2750     2.9440    -2.4600 c3         1 LIG      -0.082969
     25 H25          5.0500     3.6900    -2.6640 hc         1 LIG       0.041631
     26 H26          3.5160     3.4240    -1.8310 hc         1 LIG       0.041631
     27 C27          4.8530     1.7210    -1.7560 c3         1 LIG      -0.080969
     28 H28          5.8860     1.5690    -2.0930 hc         1 LIG       0.050631
     29 H29          4.8800     1.8540    -0.6700 hc         1 LIG       0.050631
@<TRIPOS>BOND
     1     1     2 1   
     2     2     3 ar  
     3     2    11 ar  
     4     3     4 1   
     5     3     5 ar  
     6     5     6 1   
     7     5     7 ar  
     8     7     8 1   
     9     7     9 ar  
    10     9    10 1   
    11     9    11 ar  
    12    11    12 1   
    13    12    13 2   
    14    10    13 1   
    15    10    14 1   
    16    12    15 1   
    17    16    17 1   
    18    16    18 1   
    19    16    27 1   
    20    18    19 1   
    21    18    20 1   
    22    18    21 1   
    23    21    22 1   
    24    21    23 1   
    25    21    24 1   
    26    24    25 1   
    27    24    26 1   
    28    24    27 1   
    29    27    28 1   
    30    27    29 1   
    31    13    16 1   
@<TRIPOS>SUBSTRUCTURE
     1 LIG         1 TEMP              0 ****  ****    0 ROOT
