@<TRIPOS>MOLECULE
LIG
   29    31     1     0     1 
SMALL
USER_CHARGES
@<TRIPOS>ATOM
  1 H1      1.139000   -0.391000    2.449000 ha    1 LIG     0.1319 ****
  2 C2      0.598000   -0.294000    1.513000 ca    1 LIG    -0.0831 ****
  3 C3     -0.794000   -0.441000    1.485000 ca    1 LIG    -0.1601 ****
  4 H4     -1.330000   -0.651000    2.407000 ha    1 LIG     0.1279 ****
  5 C5     -1.495000   -0.326000    0.286000 ca    1 LIG    -0.1141 ****
  6 H6     -2.576000   -0.448000    0.284000 ha    1 LIG     0.1269 ****
  7 C7     -0.831000   -0.056000   -0.915000 ca    1 LIG    -0.1471 ****
  8 H8     -1.381000    0.031000   -1.846000 ha    1 LIG     0.1299 ****
  9 C9      0.561000    0.088000   -0.868000 ca    1 LIG    -0.0443 ****
 10 N10     1.466000    0.347000   -1.875000 na    1 LIG    -0.1875 ****
 11 C11     1.287000   -0.028000    0.315000 ca    1 LIG    -0.0939 ****
 12 C12     2.655000    0.152000   -0.020000 cc    1 LIG    -0.1873 ****
 13 C13     2.752000    0.374000   -1.383000 cd    1 LIG    -0.0534 ****
 14 H14     1.202000    0.472000   -2.841000 hn    1 LIG     0.2986 ****
 15 H15     3.489000    0.103000    0.667000 ha    1 LIG     0.1549 ****
 16 C16     3.987000    0.548000   -2.227000 c3    1 LIG    -0.0106 ****
 17 H17     4.555000   -0.388000   -2.160000 hc    1 LIG     0.0696 ****
 18 C18     3.752000    0.903000   -3.697000 c3    1 LIG    -0.0810 ****
 19 H19     4.636000    0.608000   -4.278000 hc    1 LIG     0.0506 ****
 20 H20     2.896000    0.405000   -4.160000 hc    1 LIG     0.0506 ****
 21 C21     3.631000    2.425000   -3.743000 c3    1 LIG    -0.0830 ****
 22 H22     4.129000    2.828000   -4.632000 hc    1 LIG     0.0416 ****
 23 H23     2.581000    2.733000   -3.789000 hc    1 LIG     0.0416 ****
 24 C24     4.275000    2.944000   -2.460000 c3    1 LIG    -0.0830 ****
 25 H25     5.050000    3.690000   -2.664000 hc    1 LIG     0.0416 ****
 26 H26     3.516000    3.424000   -1.831000 hc    1 LIG     0.0416 ****
 27 C27     4.853000    1.721000   -1.756000 c3    1 LIG    -0.0810 ****
 28 H28     5.886000    1.569000   -2.093000 hc    1 LIG     0.0506 ****
 29 H29     4.880000    1.854000   -0.670000 hc    1 LIG     0.0506 ****
@<TRIPOS>BOND
    1     1     2 1
    2     2     3 1
    3     2    11 1
    4     3     4 1
    5     3     5 1
    6     5     6 1
    7     5     7 1
    8     7     8 1
    9     7     9 1
   10     9    10 1
   11     9    11 1
   12    10    13 1
   13    10    14 1
   14    11    12 1
   15    12    13 1
   16    12    15 1
   17    13    16 1
   18    16    17 1
   19    16    18 1
   20    16    27 1
   21    18    19 1
   22    18    20 1
   23    18    21 1
   24    21    22 1
   25    21    23 1
   26    21    24 1
   27    24    25 1
   28    24    26 1
   29    24    27 1
   30    27    28 1
   31    27    29 1
@<TRIPOS>SUBSTRUCTURE
      1  LIG              1 ****               0 ****  **** 
