@<TRIPOS>MOLECULE
LIG
17 16 1 0 0
SMALL
USER_CHARGES
****
generated by FESetup
@<TRIPOS>ATOM
     1 C1      14.5315    14.0264    15.4613 c3    1 LIG -0.108400
     2 H2      14.1816    15.3824    14.7245 hc    1 LIG  0.027100
     3 H3      13.9796    12.7887    14.6789 hc    1 LIG  0.027100
     4 H4      13.9400    14.2291    16.9094 hc    1 LIG  0.027100
     5 H5      16.0598    13.9131    15.5507 hc    1 LIG  0.027100
     6 DU6     14.4739    16.2019    15.3924 du    1 LIG  0.000000
     7 DU7     13.1290    15.3802    14.4158 du    1 LIG  0.000000
     8 DU8     14.7816    15.4658    13.8101 du    1 LIG  0.000000
     9 DU9     14.3174    11.9074    15.2379 du    1 LIG  0.000000
    10 DU10    14.3856    12.7346    13.6613 du    1 LIG  0.000000
    11 DU11    12.8842    12.7344    14.6606 du    1 LIG  0.000000
    12 DU12    13.9774    13.3554    17.5715 du    1 LIG  0.000000
    13 DU13    12.8926    14.5543    16.8904 du    1 LIG  0.000000
    14 DU14    14.5028    15.0583    17.3553 du    1 LIG  0.000000
    15 DU15    16.4001    12.9223    15.8756 du    1 LIG  0.000000
    16 DU16    16.4185    14.7314    16.1870 du    1 LIG  0.000000
    17 DU17    16.5274    14.0309    14.5654 du    1 LIG  0.000000
@<TRIPOS>BOND
     0      1      2 1
     1      1      3 1
     2      1      4 1
     3      1      5 1
     4      2      6 1
     5      2      7 1
     6      2      8 1
     7      3      9 1
     8      3     10 1
     9      3     11 1
    10      4     12 1
    11      4     13 1
    12      4     14 1
    13      5     15 1
    14      5     16 1
    15      5     17 1
@<TRIPOS>SUBSTRUCTURE
  1 LIG 1 TEMP
