@<TRIPOS>MOLECULE
LIG
29 31 1 0 0
SMALL
USER_CHARGES
****
generated by FESetup
@<TRIPOS>ATOM
     1 H1      16.2264    16.7546    20.4537 ha    1 LIG  0.131931
     2 C2      15.9595    16.4381    19.4498 ca    1 LIG -0.083069
     3 C3      14.6313    16.4696    19.0520 ca    1 LIG -0.160069
     4 H4      13.7903    16.7622    19.6737 ha    1 LIG  0.127931
     5 C5      14.2003    15.9776    17.8126 ca    1 LIG -0.114069
     6 H6      13.1550    15.8171    17.5653 ha    1 LIG  0.126931
     7 C7      15.1952    15.7098    16.8423 ca    1 LIG -0.147069
     8 C9      16.5396    15.6959    17.2459 ca    1 LIG -0.044269
     9 N10     17.6851    15.2221    16.6034 na    1 LIG -0.187469
    10 C11     16.8720    16.0383    18.5108 ca    1 LIG -0.093869
    11 C12     18.2438    15.8458    18.7069 cc    1 LIG -0.187269
    12 C13     18.7726    15.4050    17.4975 cd    1 LIG -0.053369
    13 H8      14.7552    15.2763    15.4632 ha    1 LIG  0.129931
    14 H15     18.8753    15.8556    19.5876 ha    1 LIG  0.154931
    15 C16     19.7690    15.1501    17.1625 c3    1 LIG -0.010569
    16 H14     17.7105    14.9199    15.6400 hn    1 LIG  0.298631
    17 H17     20.1043    14.3017    17.7717 hc    1 LIG  0.069631
    18 C18     19.9115    14.8057    15.6782 c3    1 LIG -0.080969
    19 H19     20.8124    14.1926    15.5421 hc    1 LIG  0.050631
    20 H20     19.0806    14.2344    15.2560 hc    1 LIG  0.050631
    21 C21     20.1222    16.1377    14.9607 c3    1 LIG -0.082969
    22 H22     20.8605    16.0342    14.1576 hc    1 LIG  0.041631
    23 H23     19.1903    16.4882    14.5044 hc    1 LIG  0.041631
    24 C24     20.5908    17.1269    16.0246 c3    1 LIG -0.082969
    25 H25     21.5291    17.6161    15.7434 hc    1 LIG  0.041631
    26 H26     19.8386    17.9134    16.1578 hc    1 LIG  0.041631
    27 C27     20.7487    16.3192    17.3084 c3    1 LIG -0.080969
    28 H28     21.7733    15.9307    17.3630 hc    1 LIG  0.050631
    29 H29     20.5854    16.9360    18.1975 hc    1 LIG  0.050631
@<TRIPOS>BOND
     0      1      2 1
     1      2      3 1
     2      2     10 1
     3      3      4 1
     4      3      5 1
     5      5      6 1
     6      5      7 1
     7      7      8 1
     8      7     13 1
     9      8      9 1
    10      8     10 1
    11      9     12 1
    12      9     16 1
    13     10     11 1
    14     11     12 1
    15     11     14 1
    16     12     15 1
    17     15     18 1
    18     15     27 1
    19     15     17 1
    20     18     19 1
    21     18     20 1
    22     18     21 1
    23     21     22 1
    24     21     23 1
    25     21     24 1
    26     24     25 1
    27     24     26 1
    28     24     27 1
    29     27     28 1
    30     27     29 1
@<TRIPOS>SUBSTRUCTURE
  1 LIG 1 TEMP
