@<TRIPOS>MOLECULE
LIG
6 5 1 0 0
SMALL
USER_CHARGES
****
generated by FESetup
@<TRIPOS>ATOM
     1 C1       0.9970    -0.0830     0.0560 c3    1 LIG  0.116700
     2 O2       2.4130    -0.0920     0.0600 oh    1 LIG -0.598800
     3 H3       0.6360     0.3130    -0.8960 h1    1 LIG  0.028700
     4 H4       0.6340     0.5340     0.8820 h1    1 LIG  0.028700
     5 H5       0.6360    -1.1070     0.1830 h1    1 LIG  0.028700
     6 H6       2.7040     0.8290    -0.0540 ho    1 LIG  0.396000
@<TRIPOS>BOND
     0      1      2 1
     1      1      3 1
     2      1      4 1
     3      1      5 1
     4      2      6 1
@<TRIPOS>SUBSTRUCTURE
  1 LIG 1 TEMP
